
  EPA STORM WATER MANAGEMENT MODEL - VERSION 5.1 (Build 5.1.015)
  --------------------------------------------------------------

  WARNING 04: minimum elevation drop used for Conduit 28
  WARNING 04: minimum elevation drop used for Conduit 39
  WARNING 04: minimum elevation drop used for Conduit 43
  WARNING 04: minimum elevation drop used for Conduit 48
  WARNING 04: minimum elevation drop used for Conduit 76
  WARNING 04: minimum elevation drop used for Conduit 78
  WARNING 04: minimum elevation drop used for Conduit 80
  WARNING 04: minimum elevation drop used for Conduit 85
  WARNING 08: elevation drop exceeds length for Conduit 92
  WARNING 04: minimum elevation drop used for Conduit 147
  WARNING 02: maximum depth increased for Node 1
  WARNING 02: maximum depth increased for Node 2
  WARNING 02: maximum depth increased for Node 70
  WARNING 02: maximum depth increased for Node 72
  WARNING 02: maximum depth increased for Node 91
  
  *********************************************************
  NOTE: The summary statistics displayed in this report are
  based on results found at every computational time step,  
  not just on results from each reporting time step.
  *********************************************************
  
  ****************
  Analysis Options
  ****************
  Flow Units ............... CFS
  Process Models:
    Rainfall/Runoff ........ NO
    RDII ................... NO
    Snowmelt ............... NO
    Groundwater ............ NO
    Flow Routing ........... YES
    Ponding Allowed ........ YES
    Water Quality .......... NO
  Flow Routing Method ...... DYNWAVE
  Surcharge Method ......... EXTRAN
  Starting Date ............ 01/01/2020 00:00:00
  Ending Date .............. 01/09/2020 00:00:00
  Antecedent Dry Days ...... 0.0
  Report Time Step ......... 00:15:00
  Routing Time Step ........ 30.00 sec
  Variable Time Step ....... YES
  Maximum Trials ........... 10
  Number of Threads ........ 1
  Head Tolerance ........... 0.005000 ft
  
  
  **************************        Volume        Volume
  Flow Routing Continuity        acre-feet      10^6 gal
  **************************     ---------     ---------
  Dry Weather Inflow .......         0.000         0.000
  Wet Weather Inflow .......         0.000         0.000
  Groundwater Inflow .......         0.000         0.000
  RDII Inflow ..............         0.000         0.000
  External Inflow ..........       109.678        35.740
  External Outflow .........         0.000         0.000
  Flooding Loss ............         0.000         0.000
  Evaporation Loss .........         0.000         0.000
  Exfiltration Loss ........         0.000         0.000
  Initial Stored Volume ....        -0.306        -0.100
  Final Stored Volume ......        97.642        31.818
  Continuity Error (%) .....        10.726
  
  
  *************************
  Highest Continuity Errors
  *************************
  Node 33 (100.00%)
  Node 70 (90.94%)
  Node 15 (55.58%)
  Node 32 (51.46%)
  Node 11 (28.50%)
  
  
  ***************************
  Time-Step Critical Elements
  ***************************
  Link 6 (553.37%)
  Link 8 (50.79%)
  Link 12 (29.48%)
  Link 15 (20.23%)
  Link 30 (9.41%)
  
  
  ********************************
  Highest Flow Instability Indexes
  ********************************
  Link 12 (129)
  Link 8 (95)
  Link 13 (84)
  Link 9 (81)
  Link 10 (78)
  
  
  *************************
  Routing Time Step Summary
  *************************
  Minimum Time Step           :    22.20 sec
  Average Time Step           :    29.99 sec
  Maximum Time Step           :    30.00 sec
  Percent in Steady State     :    94.79
  Average Iterations per Step :     2.28
  Percent Not Converging      :    22.48
  Time Step Frequencies       :
     30.000 -  3.817 sec      :   100.00 %
      3.817 -  0.486 sec      :     0.00 %
      0.486 -  0.062 sec      :     0.00 %
      0.062 -  0.008 sec      :     0.00 %
      0.008 -  0.001 sec      :     0.00 %
  
  
  ******************
  Node Depth Summary
  ******************
  
  ---------------------------------------------------------------------------------
                                 Average  Maximum  Maximum  Time of Max    Reported
                                   Depth    Depth      HGL   Occurrence   Max Depth
  Node                 Type         Feet     Feet     Feet  days hr:min        Feet
  ---------------------------------------------------------------------------------
  1                    JUNCTION     0.00     0.00    10.01     0  00:00        0.00
  2                    JUNCTION     0.00     0.00     8.99     0  00:00        0.00
  3                    JUNCTION     0.00     0.00    -3.22     0  00:00        0.00
  4                    JUNCTION     0.00     0.00    -1.56     0  00:00        0.00
  5                    JUNCTION     0.00     0.00     8.59     0  00:00        0.00
  6                    JUNCTION     0.00     0.00     1.67     7  14:00        0.00
  7                    JUNCTION     3.91     3.92     1.66     7  14:00        3.92
  8                    JUNCTION    49.64    49.65     1.66     7  14:00       49.65
  9                    JUNCTION    49.61    49.62     1.66     7  14:00       49.62
  10                   JUNCTION    77.52    77.53     1.66     7  14:45       77.53
  11                   JUNCTION    87.46    87.47     1.66     7  14:29       87.47
  12                   JUNCTION    20.08    20.10     1.67     7  14:50       20.09
  13                   JUNCTION    13.45    13.46     1.66     7  14:28       13.46
  14                   JUNCTION    13.34    13.35     1.66     7  14:30       13.35
  15                   JUNCTION    26.13    26.14     1.66     7  14:31       26.14
  16                   JUNCTION     9.57     9.58     1.66     7  14:31        9.58
  19                   JUNCTION     0.00     0.00   -18.80     0  00:00        0.00
  20                   JUNCTION     0.00     0.00   -23.80     0  00:00        0.00
  21                   JUNCTION     0.00     0.00   -21.00     0  00:00        0.00
  22                   JUNCTION     0.00     0.00   -12.50     0  00:00        0.00
  23                   JUNCTION     0.00     0.00    -5.20     0  00:00        0.00
  24                   JUNCTION     0.00     0.00     6.50     0  00:00        0.00
  25                   JUNCTION     0.00     0.00     6.30     0  00:00        0.00
  26                   JUNCTION     3.63     3.64    -7.96     7  14:00        3.64
  27                   JUNCTION     3.93     3.94    -7.96     7  14:00        3.94
  28                   JUNCTION     0.03     0.04    -7.96     7  14:04        0.04
  29                   JUNCTION     0.01     0.01    -7.99     7  14:00        0.01
  30                   JUNCTION     0.02     0.03   -21.67     7  14:00        0.03
  31                   JUNCTION     0.01     0.01   -21.79     7  14:00        0.01
  32                   JUNCTION    24.71    24.76   -22.84     8  00:00       24.76
  33                   JUNCTION    21.61    21.66   -22.84     8  00:00       21.66
  34                   JUNCTION     0.00     0.00   -11.70     0  00:00        0.00
  35                   JUNCTION     0.00     0.00    21.17     0  00:00        0.00
  36                   JUNCTION     0.00     0.00     5.30     0  00:00        0.00
  37                   JUNCTION     0.00     0.00     5.40     0  00:00        0.00
  38                   JUNCTION     0.00     0.00   -13.00     0  00:00        0.00
  39                   JUNCTION     0.00     0.00   -13.30     0  00:00        0.00
  40                   JUNCTION     0.00     0.00   -34.20     0  00:00        0.00
  41                   JUNCTION     0.00     0.00   -34.20     0  00:00        0.00
  42                   JUNCTION     0.00     0.00   -61.50     0  00:00        0.00
  43                   JUNCTION     0.00     0.00   -64.90     0  00:00        0.00
  44                   JUNCTION     0.00     0.00   -26.20     0  00:00        0.00
  45                   JUNCTION     0.00     0.00   -26.20     0  00:00        0.00
  46                   JUNCTION     0.00     0.00   -16.40     0  00:00        0.00
  47                   JUNCTION     0.00     0.00   -16.50     0  00:00        0.00
  48                   JUNCTION     0.00     0.00   -27.80     0  00:00        0.00
  49                   JUNCTION     0.00     0.00   -14.30     0  00:00        0.00
  50                   JUNCTION     0.00     0.00   -14.30     0  00:00        0.00
  51                   JUNCTION     0.00     0.00   -10.50     0  00:00        0.00
  52                   JUNCTION     0.00     0.00     3.00     0  00:00        0.00
  53                   JUNCTION     0.00     0.00   -22.10     0  00:00        0.00
  54                   JUNCTION     0.00     0.00    -0.90     0  00:00        0.00
  55                   JUNCTION     0.00     0.00     0.00     0  00:00        0.00
  56                   JUNCTION     0.00     0.00   -13.70     0  00:00        0.00
  57                   JUNCTION     0.00     0.00   -13.20     0  00:00        0.00
  58                   JUNCTION     0.00     0.00   -20.50     0  00:00        0.00
  59                   JUNCTION     0.00     0.00   -20.60     0  00:00        0.00
  60                   JUNCTION     0.00     0.00     7.19     0  00:00        0.00
  61                   JUNCTION     0.00     0.00    12.80     0  00:00        0.00
  62                   JUNCTION     0.00     0.00    15.00     0  00:00        0.00
  63                   JUNCTION     0.00     0.00    22.00     0  00:00        0.00
  64                   JUNCTION     0.00     0.00    18.00     0  00:00        0.00
  65                   JUNCTION     0.00     0.00    11.00     0  00:00        0.00
  66                   JUNCTION     0.00     0.00    -3.00     0  00:00        0.00
  67                   JUNCTION     0.00     0.00    -5.70     0  00:00        0.00
  70                   JUNCTION     4.21     4.21   -21.79     7  14:00        4.21
  71                   JUNCTION     0.00     0.00   -11.19     0  00:00        0.00
  72                   JUNCTION     0.00     0.00   -16.30     0  00:00        0.00
  73                   JUNCTION     0.00     0.00   -17.00     0  00:00        0.00
  74                   JUNCTION     0.00     0.00    -5.00     0  00:00        0.00
  75                   JUNCTION     0.00     0.00   -11.90     0  00:00        0.00
  76                   JUNCTION     0.00     0.00    -3.00     0  00:00        0.00
  77                   JUNCTION     0.00     0.00    -6.25     0  00:00        0.00
  78                   JUNCTION     0.00     0.00   -19.70     0  00:00        0.00
  79                   JUNCTION     0.00     0.00   -19.70     0  00:00        0.00
  80                   JUNCTION     0.00     0.00   -12.60     0  00:00        0.00
  81                   JUNCTION     0.00     0.00   -12.60     0  00:00        0.00
  82                   JUNCTION     0.00     0.00    -5.00     0  00:00        0.00
  83                   JUNCTION     0.00     0.00   -16.10     0  00:00        0.00
  84                   JUNCTION     0.00     0.00   -16.10     0  00:00        0.00
  85                   JUNCTION     0.00     0.00   -43.70     0  00:00        0.00
  86                   JUNCTION     0.00     0.00   -51.30     0  00:00        0.00
  87                   JUNCTION     0.00     0.00   -40.00     0  00:00        0.00
  88                   JUNCTION     0.00     0.00   -37.00     0  00:00        0.00
  89                   JUNCTION     0.00     0.00   -37.00     0  00:00        0.00
  90                   JUNCTION     0.00     0.00   -23.00     0  00:00        0.00
  91                   JUNCTION     0.00     0.00    -4.80     0  00:00        0.00
  92                   JUNCTION     0.00     0.00    -0.80     0  00:00        0.00
  18                   JUNCTION     0.00     0.00   -16.30     0  00:00        0.00
  100                  JUNCTION     0.00     0.00   -28.62     0  00:00        0.00
  102                  JUNCTION     0.00     0.00   -25.64     0  00:00        0.00
  103                  JUNCTION     0.00     0.00   -22.38     0  00:00        0.00
  104                  JUNCTION     0.00     0.00   -22.37     0  00:00        0.00
  105                  JUNCTION     0.00     0.00   -20.44     0  00:00        0.00
  106                  JUNCTION     0.00     0.00   -12.12     0  00:00        0.00
  107                  JUNCTION     0.00     0.00   -14.89     0  00:00        0.00
  108                  JUNCTION     0.00     0.00    -6.80     0  00:00        0.00
  109                  JUNCTION     0.00     0.00   -20.88     0  00:00        0.00
  110                  JUNCTION     0.00     0.00   -20.91     0  00:00        0.00
  111                  JUNCTION     0.00     0.00   -20.98     0  00:00        0.00
  112                  JUNCTION     0.00     0.00   -21.00     0  00:00        0.00
  113                  JUNCTION     0.00     0.00   -80.80     0  00:00        0.00
  114                  JUNCTION     0.00     0.00   -83.18     0  00:00        0.00
  115                  JUNCTION     0.00     0.00   -71.75     0  00:00        0.00
  116                  JUNCTION     0.00     0.00   -71.87     0  00:00        0.00
  117                  JUNCTION     0.00     0.00   -98.50     0  00:00        0.00
  118                  JUNCTION     0.00     0.00   -22.98     0  00:00        0.00
  119                  JUNCTION     0.00     0.00   -20.15     0  00:00        0.00
  120                  JUNCTION     0.00     0.00   -17.42     0  00:00        0.00
  121                  JUNCTION     0.00     0.00    -3.19     0  00:00        0.00
  122                  JUNCTION     0.00     0.00    -3.43     0  00:00        0.00
  123                  JUNCTION     0.00     0.00   -10.64     0  00:00        0.00
  124                  JUNCTION     0.00     0.00    -6.50     0  00:00        0.00
  125                  JUNCTION     0.00     0.00    -7.20     0  00:00        0.00
  126                  JUNCTION     0.00     0.00   -19.38     0  00:00        0.00
  127                  JUNCTION     0.00     0.00   -11.21     0  00:00        0.00
  128                  JUNCTION     0.00     0.00   -11.70     0  00:00        0.00
  129                  JUNCTION     0.00     0.00   -14.32     0  00:00        0.00
  130                  JUNCTION     0.00     0.00    -5.69     0  00:00        0.00
  131                  JUNCTION     0.00     0.00    31.65     0  00:00        0.00
  132                  JUNCTION     0.00     0.00    31.36     0  00:00        0.00
  133                  JUNCTION     0.00     0.00    40.24     0  00:00        0.00
  134                  JUNCTION     0.00     0.00    44.72     0  00:00        0.00
  135                  JUNCTION     0.00     0.00    44.62     0  00:00        0.00
  136                  JUNCTION     0.00     0.00    44.35     0  00:00        0.00
  137                  JUNCTION     0.00     0.00    34.51     0  00:00        0.00
  138                  JUNCTION     0.00     0.00    52.23     0  00:00        0.00
  139                  JUNCTION     0.00     0.00    49.93     0  00:00        0.00
  140                  JUNCTION     0.00     0.00    45.20     0  00:00        0.00
  141                  JUNCTION     0.00     0.00    49.13     0  00:00        0.00
  142                  JUNCTION     0.00     0.00    40.05     0  00:00        0.00
  143                  JUNCTION     0.00     0.00    39.90     0  00:00        0.00
  148                  JUNCTION     0.00     0.00   -26.26     0  00:00        0.00
  68                   OUTFALL      0.00     0.00     6.50     0  00:00        0.00
  69                   OUTFALL      0.00     0.00     5.00     0  00:00        0.00
  93                   OUTFALL      0.00     0.00    13.89     0  00:00        0.00
  94                   OUTFALL      0.00     0.00    10.51     0  00:00        0.00
  95                   OUTFALL      0.00     0.00    12.70     0  00:00        0.00
  96                   OUTFALL      0.00     0.00    31.60     0  00:00        0.00
  97                   OUTFALL      0.00     0.00    17.55     0  00:00        0.00
  98                   OUTFALL      0.00     0.00    11.00     0  00:00        0.00
  99                   OUTFALL      0.00     0.00     6.10     0  00:00        0.00
  101                  OUTFALL      0.00     0.00    11.89     0  00:00        0.00
  144                  OUTFALL      0.00     0.00    32.22     0  00:00        0.00
  145                  OUTFALL      0.00     0.00     8.00     0  00:00        0.00
  146                  OUTFALL      0.00     0.00    39.90     0  00:00        0.00
  147                  OUTFALL      0.00     0.00    15.00     0  00:00        0.00
  
  
  *******************
  Node Inflow Summary
  *******************
  
  -------------------------------------------------------------------------------------------------
                                  Maximum  Maximum                  Lateral       Total        Flow
                                  Lateral    Total  Time of Max      Inflow      Inflow     Balance
                                   Inflow   Inflow   Occurrence      Volume      Volume       Error
  Node                 Type           CFS      CFS  days hr:min    10^6 gal    10^6 gal     Percent
  -------------------------------------------------------------------------------------------------
  1                    JUNCTION      0.00     0.00     0  00:00           0           0       0.000 gal
  2                    JUNCTION      0.00     0.00     0  00:00           0           0       0.000 gal
  3                    JUNCTION      0.00     0.00     0  00:00           0           0       0.000 gal
  4                    JUNCTION      0.00     0.00     0  00:00           0           0       0.000 gal
  5                    JUNCTION      0.00     0.00     0  00:00           0           0       0.000 gal
  6                    JUNCTION      0.00     0.00     0  00:00           0        8.77      -0.003
  7                    JUNCTION      0.00     0.34     7  14:29           0        9.35       5.569
  8                    JUNCTION      0.00     0.91     7  14:45           0        25.5      15.550
  9                    JUNCTION      0.00     1.18     7  14:30           0        24.3      15.495
  10                   JUNCTION      0.00     1.27     7  16:17           0        21.2      25.128
  11                   JUNCTION      0.00     1.79     7  14:29           0        16.9      39.858
  12                   JUNCTION      0.00     3.72     7  16:15           0        11.9      28.489
  13                   JUNCTION      0.00     2.95     7  14:28           0        9.05      23.777
  14                   JUNCTION      0.00     1.85     7  16:24           0        7.72      54.808
  15                   JUNCTION      0.00     1.27     7  16:19           0         5.1     125.122
  16                   JUNCTION      0.00     0.37     8  00:00           0        1.34     126.506
  19                   JUNCTION      0.00     0.00     0  00:00           0           0       0.000 gal
  20                   JUNCTION      0.00     0.00     0  00:00           0           0       0.000 gal
  21                   JUNCTION      0.00     0.00     0  00:00           0           0       0.000 gal
  22                   JUNCTION      0.00     0.00     0  00:00           0           0       0.000 gal
  23                   JUNCTION      0.00     0.00     0  00:00           0           0       0.000 gal
  24                   JUNCTION      0.00     0.00     0  00:00           0           0       0.000 gal
  25                   JUNCTION      0.00     0.00     0  00:00           0           0       0.000 gal
  26                   JUNCTION      0.00     0.03     7  14:08           0        8.79       9.943
  27                   JUNCTION      0.00     0.07     7  14:02           0        7.99      12.237
  28                   JUNCTION      0.00     0.08     7  14:02           0         7.1       0.088
  29                   JUNCTION      0.00     0.06     7  14:04           0         7.1       0.005
  30                   JUNCTION      0.00     0.06     7  14:00           0         7.1       0.062
  31                   JUNCTION      0.00     0.08     7  14:00           0        7.16       0.007
  32                   JUNCTION      0.00     0.09     7  14:00           0        6.46     106.018
  33                   JUNCTION      0.00     0.04     7  14:00           0        3.14 3135140.289 gal
  34                   JUNCTION      0.00     0.00     0  00:00           0           0       0.000 gal
  35                   JUNCTION      0.00     0.00     0  00:00           0           0       0.000 gal
  36                   JUNCTION      0.00     0.00     0  00:00           0           0       0.000 gal
  37                   JUNCTION      0.00     0.00     0  00:00           0           0       0.000 gal
  38                   JUNCTION      0.00     0.00     0  00:00           0           0       0.000 gal
  39                   JUNCTION      0.00     0.00     0  00:00           0           0       0.000 gal
  40                   JUNCTION      0.00     0.00     0  00:00           0           0       0.000 gal
  41                   JUNCTION      0.00     0.00     0  00:00           0           0       0.000 gal
  42                   JUNCTION      0.00     0.00     0  00:00           0           0       0.000 gal
  43                   JUNCTION      0.00     0.00     0  00:00           0           0       0.000 gal
  44                   JUNCTION      0.00     0.00     0  00:00           0           0       0.000 gal
  45                   JUNCTION      0.00     0.00     0  00:00           0           0       0.000 gal
  46                   JUNCTION      0.00     0.00     0  00:00           0           0       0.000 gal
  47                   JUNCTION      0.00     0.00     0  00:00           0           0       0.000 gal
  48                   JUNCTION      0.00     0.00     0  00:00           0           0       0.000 gal
  49                   JUNCTION      0.00     0.00     0  00:00           0           0       0.000 gal
  50                   JUNCTION      0.00     0.00     0  00:00           0           0       0.000 gal
  51                   JUNCTION      0.00     0.00     0  00:00           0           0       0.000 gal
  52                   JUNCTION      0.00     0.00     0  00:00           0           0       0.000 gal
  53                   JUNCTION      0.00     0.00     0  00:00           0           0       0.000 gal
  54                   JUNCTION      0.00     0.00     0  00:00           0           0       0.000 gal
  55                   JUNCTION      0.00     0.00     0  00:00           0           0       0.000 gal
  56                   JUNCTION      0.00     0.00     0  00:00           0           0       0.000 gal
  57                   JUNCTION      0.00     0.00     0  00:00           0           0       0.000 gal
  58                   JUNCTION      0.00     0.00     0  00:00           0           0       0.000 gal
  59                   JUNCTION      0.00     0.00     0  00:00           0           0       0.000 gal
  60                   JUNCTION      0.00     0.00     0  00:00           0           0       0.000 gal
  61                   JUNCTION      0.00     0.00     0  00:00           0           0       0.000 gal
  62                   JUNCTION      0.00     0.00     0  00:00           0           0       0.000 gal
  63                   JUNCTION      0.00     0.00     0  00:00           0           0       0.000 gal
  64                   JUNCTION      0.00     0.00     0  00:00           0           0       0.000 gal
  65                   JUNCTION      0.00     0.00     0  00:00           0           0       0.000 gal
  66                   JUNCTION      0.00     0.00     0  00:00           0           0       0.000 gal
  67                   JUNCTION      0.00     0.00     0  00:00           0           0       0.000 gal
  70                   JUNCTION      0.00     0.00     0  00:00           0       0.697    1003.467
  71                   JUNCTION      0.00     0.00     0  00:00           0           0       0.000 gal
  72                   JUNCTION      0.00     0.00     0  00:00           0           0       0.000 gal
  73                   JUNCTION      0.00     0.00     0  00:00           0           0       0.000 gal
  74                   JUNCTION      0.00     0.00     0  00:00           0           0       0.000 gal
  75                   JUNCTION      0.00     0.00     0  00:00           0           0       0.000 gal
  76                   JUNCTION      0.00     0.00     0  00:00           0           0       0.000 gal
  77                   JUNCTION      0.00     0.00     0  00:00           0           0       0.000 gal
  78                   JUNCTION      0.00     0.00     0  00:00           0           0       0.000 gal
  79                   JUNCTION      0.00     0.00     0  00:00           0           0       0.000 gal
  80                   JUNCTION      0.00     0.00     0  00:00           0           0       0.000 gal
  81                   JUNCTION      0.00     0.00     0  00:00           0           0       0.000 gal
  82                   JUNCTION      0.00     0.00     0  00:00           0           0       0.000 gal
  83                   JUNCTION      0.00     0.00     0  00:00           0           0       0.000 gal
  84                   JUNCTION      0.00     0.00     0  00:00           0           0       0.000 gal
  85                   JUNCTION      0.00     0.00     0  00:00           0           0       0.000 gal
  86                   JUNCTION      0.00     0.00     0  00:00           0           0       0.000 gal
  87                   JUNCTION      0.00     0.00     0  00:00           0           0       0.000 gal
  88                   JUNCTION      0.00     0.00     0  00:00           0           0       0.000 gal
  89                   JUNCTION      0.00     0.00     0  00:00           0           0       0.000 gal
  90                   JUNCTION      0.00     0.00     0  00:00           0           0       0.000 gal
  91                   JUNCTION      0.00     0.00     0  00:00           0           0       0.000 gal
  92                   JUNCTION      0.00     0.00     0  00:00           0           0       0.000 gal
  18                   JUNCTION      0.00     0.00     0  00:00           0           0       0.000 gal
  100                  JUNCTION      0.00     0.00     0  00:00           0           0       0.000 gal
  102                  JUNCTION      0.00     0.00     0  00:00           0           0       0.000 gal
  103                  JUNCTION      0.00     0.00     0  00:00           0           0       0.000 gal
  104                  JUNCTION      0.00     0.00     0  00:00           0           0       0.000 gal
  105                  JUNCTION      0.00     0.00     0  00:00           0           0       0.000 gal
  106                  JUNCTION      0.00     0.00     0  00:00           0           0       0.000 gal
  107                  JUNCTION      0.00     0.00     0  00:00           0           0       0.000 gal
  108                  JUNCTION      0.00     0.00     0  00:00           0           0       0.000 gal
  109                  JUNCTION      0.00     0.00     0  00:00           0           0       0.000 gal
  110                  JUNCTION      0.00     0.00     0  00:00           0           0       0.000 gal
  111                  JUNCTION      0.00     0.00     0  00:00           0           0       0.000 gal
  112                  JUNCTION      0.00     0.00     0  00:00           0           0       0.000 gal
  113                  JUNCTION      0.00     0.00     0  00:00           0           0       0.000 gal
  114                  JUNCTION      0.00     0.00     0  00:00           0           0       0.000 gal
  115                  JUNCTION      0.00     0.00     0  00:00           0           0       0.000 gal
  116                  JUNCTION      0.00     0.00     0  00:00           0           0       0.000 gal
  117                  JUNCTION      0.00     0.00     0  00:00           0           0       0.000 gal
  118                  JUNCTION      0.00     0.00     0  00:00           0           0       0.000 gal
  119                  JUNCTION      0.00     0.00     0  00:00           0           0       0.000 gal
  120                  JUNCTION      0.00     0.00     0  00:00           0           0       0.000 gal
  121                  JUNCTION      0.00     0.00     0  00:00           0           0       0.000 gal
  122                  JUNCTION      0.00     0.00     0  00:00           0           0       0.000 gal
  123                  JUNCTION      0.00     0.00     0  00:00           0           0       0.000 gal
  124                  JUNCTION      0.00     0.00     0  00:00           0           0       0.000 gal
  125                  JUNCTION      0.00     0.00     0  00:00           0           0       0.000 gal
  126                  JUNCTION      0.00     0.00     0  00:00           0           0       0.000 gal
  127                  JUNCTION      0.00     0.00     0  00:00           0           0       0.000 gal
  128                  JUNCTION      0.00     0.00     0  00:00           0           0       0.000 gal
  129                  JUNCTION      0.00     0.00     0  00:00           0           0       0.000 gal
  130                  JUNCTION      0.00     0.00     0  00:00           0           0       0.000 gal
  131                  JUNCTION      0.00     0.00     0  00:00           0           0       0.000 gal
  132                  JUNCTION      0.00     0.00     0  00:00           0           0       0.000 gal
  133                  JUNCTION      0.00     0.00     0  00:00           0           0       0.000 gal
  134                  JUNCTION      0.00     0.00     0  00:00           0           0       0.000 gal
  135                  JUNCTION      0.00     0.00     0  00:00           0           0       0.000 gal
  136                  JUNCTION      0.00     0.00     0  00:00           0           0       0.000 gal
  137                  JUNCTION      0.00     0.00     0  00:00           0           0       0.000 gal
  138                  JUNCTION      0.00     0.00     0  00:00           0           0       0.000 gal
  139                  JUNCTION      0.00     0.00     0  00:00           0           0       0.000 gal
  140                  JUNCTION      0.00     0.00     0  00:00           0           0       0.000 gal
  141                  JUNCTION      0.00     0.00     0  00:00           0           0       0.000 gal
  142                  JUNCTION      0.00     0.00     0  00:00           0           0       0.000 gal
  143                  JUNCTION      0.00     0.00     0  00:00           0           0       0.000 gal
  148                  JUNCTION      0.00     0.00     0  00:00           0           0       0.000 gal
  68                   OUTFALL       0.00     0.00     0  00:00           0           0       0.000 gal
  69                   OUTFALL       0.00     0.00     0  00:00           0           0       0.000 gal
  93                   OUTFALL       0.00     0.00     0  00:00           0           0       0.000 gal
  94                   OUTFALL       0.00     0.00     0  00:00           0           0       0.000 gal
  95                   OUTFALL       0.00     0.00     0  00:00           0           0       0.000 gal
  96                   OUTFALL       0.00     0.00     0  00:00           0           0       0.000 gal
  97                   OUTFALL       0.00     0.00     0  00:00           0           0       0.000 gal
  98                   OUTFALL       0.00     0.00     0  00:00           0           0       0.000 gal
  99                   OUTFALL       0.00     0.00     0  00:00           0           0       0.000 gal
  101                  OUTFALL       0.00     0.00     0  00:00           0           0       0.000 gal
  144                  OUTFALL       0.00     0.00     0  00:00           0           0       0.000 gal
  145                  OUTFALL       0.00     0.00     0  00:00           0           0       0.000 gal
  146                  OUTFALL       0.00     0.00     0  00:00           0           0       0.000 gal
  147                  OUTFALL       0.00     0.00     0  00:00           0           0       0.000 gal
  
  
  **********************
  Node Surcharge Summary
  **********************
  
  Surcharging occurs when water rises above the top of the highest conduit.
  ---------------------------------------------------------------------
                                               Max. Height   Min. Depth
                                   Hours       Above Crown    Below Rim
  Node                 Type      Surcharged           Feet         Feet
  ---------------------------------------------------------------------
  8                    JUNCTION       10.01         23.649       10.351
  9                    JUNCTION       10.01         23.619       10.381
  10                   JUNCTION       10.01         58.031        7.469
  11                   JUNCTION       10.01         67.973        7.527
  12                   JUNCTION       10.01          0.598        9.902
  15                   JUNCTION       10.01          9.139       13.861
  32                   JUNCTION       10.01          8.657       55.243
  33                   JUNCTION       10.01          5.557       58.343
  
  
  *********************
  Node Flooding Summary
  *********************
  
  No nodes were flooded.
  
  
  ***********************
  Outfall Loading Summary
  ***********************
  
  -----------------------------------------------------------
                         Flow       Avg       Max       Total
                         Freq      Flow      Flow      Volume
  Outfall Node           Pcnt       CFS       CFS    10^6 gal
  -----------------------------------------------------------
  68                     0.00      0.00      0.00       0.000
  69                     0.00      0.00      0.00       0.000
  93                     0.00      0.00      0.00       0.000
  94                     0.00      0.00      0.00       0.000
  95                     0.00      0.00      0.00       0.000
  96                     0.00      0.00      0.00       0.000
  97                     0.00      0.00      0.00       0.000
  98                     0.00      0.00      0.00       0.000
  99                     0.00      0.00      0.00       0.000
  101                    0.00      0.00      0.00       0.000
  144                    0.00      0.00      0.00       0.000
  145                    0.00      0.00      0.00       0.000
  146                    0.00      0.00      0.00       0.000
  147                    0.00      0.00      0.00       0.000
  -----------------------------------------------------------
  System                 0.00      0.00      0.00       0.000
  
  
  ********************
  Link Flow Summary
  ********************
  
  -----------------------------------------------------------------------------
                                 Maximum  Time of Max   Maximum    Max/    Max/
                                  |Flow|   Occurrence   |Veloc|    Full    Full
  Link                 Type          CFS  days hr:min    ft/sec    Flow   Depth
  -----------------------------------------------------------------------------
  1                    CONDUIT      0.00     0  00:00      0.00    0.00    0.00
  2                    CONDUIT      0.00     0  00:00      0.00    0.00    0.00
  3                    CONDUIT      0.00     0  00:00      0.00    0.00    0.00
  4                    CONDUIT      0.00     0  00:00      0.00    0.00    0.00
  5                    CONDUIT      0.00     0  00:00      0.00    0.00    0.00
  6                    CONDUIT      0.00     0  00:00      0.00    0.00    0.12
  7                    CONDUIT      0.42     7  20:15      0.00    0.00    0.60
  8                    CONDUIT      0.92     7  16:24      0.00    0.00    1.00
  9                    CONDUIT      1.27     7  16:17      0.00    0.00    1.00
  10                   CONDUIT      0.74     7  16:16      0.00    0.00    1.00
  11                   CONDUIT      1.65     7  16:15      0.00    0.00    1.00
  12                   CONDUIT      2.95     7  14:28      0.01    0.00    0.92
  13                   CONDUIT      1.60     7  16:23      0.00    0.00    0.79
  14                   CONDUIT      1.27     7  16:19      0.00    0.00    0.89
  15                   CONDUIT      0.37     8  00:00      0.00    0.00    0.78
  19                   CONDUIT      0.00     0  00:00      0.00    0.00    0.00
  20                   CONDUIT      0.00     0  00:00      0.00    0.00    0.00
  21                   CONDUIT      0.00     0  00:00      0.00    0.00    0.00
  22                   CONDUIT      0.00     0  00:00      0.00    0.00    0.00
  23                   CONDUIT      0.00     0  00:00      0.00    0.00    0.00
  24                   CONDUIT      0.00     0  00:00      0.00    0.00    0.00
  25                   CONDUIT      0.00     0  00:00      0.00    0.00    0.06
  26                   CONDUIT      0.07     7  14:02      0.00    0.00    0.16
  27                   CONDUIT      0.08     7  14:02      0.00    0.00    0.10
  28                   CONDUIT      0.06     7  14:04      0.05    0.00    0.00
  29                   CONDUIT      0.06     7  14:00      0.14    0.00    0.00
  30                   CONDUIT      0.08     7  14:00      0.08    0.00    0.00
  31                   CONDUIT      0.09     7  14:00      0.00    0.00    0.50
  32                   CONDUIT      0.04     7  14:00      0.00    0.00    1.00
  33                   CONDUIT      0.00     0  00:00      0.00    0.00    0.50
  34                   CONDUIT      0.00     0  00:00      0.00    0.00    0.00
  35                   CONDUIT      0.00     0  00:00      0.00    0.00    0.00
  36                   CONDUIT      0.00     0  00:00      0.00    0.00    0.00
  37                   CONDUIT      0.00     0  00:00      0.00    0.00    0.00
  38                   CONDUIT      0.00     0  00:00      0.00    0.00    0.00
  39                   CONDUIT      0.00     0  00:00      0.00    0.00    0.00
  40                   CONDUIT      0.00     0  00:00      0.00    0.00    0.00
  41                   CONDUIT      0.00     0  00:00      0.00    0.00    0.00
  42                   CONDUIT      0.00     0  00:00      0.00    0.00    0.00
  43                   CONDUIT      0.00     0  00:00      0.00    0.00    0.00
  44                   CONDUIT      0.00     0  00:00      0.00    0.00    0.00
  45                   CONDUIT      0.00     0  00:00      0.00    0.00    0.00
  46                   CONDUIT      0.00     0  00:00      0.00    0.00    0.00
  47                   CONDUIT      0.00     0  00:00      0.00    0.00    0.00
  48                   CONDUIT      0.00     0  00:00      0.00    0.00    0.00
  49                   CONDUIT      0.00     0  00:00      0.00    0.00    0.00
  50                   CONDUIT      0.00     0  00:00      0.00    0.00    0.00
  51                   CONDUIT      0.00     0  00:00      0.00    0.00    0.00
  52                   CONDUIT      0.00     0  00:00      0.00    0.00    0.00
  53                   CONDUIT      0.00     0  00:00      0.00    0.00    0.00
  54                   CONDUIT      0.00     0  00:00      0.00    0.00    0.00
  55                   CONDUIT      0.00     0  00:00      0.00    0.00    0.00
  56                   CONDUIT      0.00     0  00:00      0.00    0.00    0.00
  57                   CONDUIT      0.00     0  00:00      0.00    0.00    0.00
  58                   CONDUIT      0.00     0  00:00      0.00    0.00    0.00
  59                   CONDUIT      0.00     0  00:00      0.00    0.00    0.00
  60                   CONDUIT      0.00     0  00:00      0.00    0.00    0.00
  61                   CONDUIT      0.00     0  00:00      0.00    0.00    0.00
  62                   CONDUIT      0.00     0  00:00      0.00    0.00    0.00
  63                   CONDUIT      0.00     0  00:00      0.00    0.00    0.00
  64                   CONDUIT      0.00     0  00:00      0.00    0.00    0.00
  65                   CONDUIT      0.00     0  00:00      0.00    0.00    0.00
  67                   CONDUIT      0.00     7  14:00      0.00    0.00    0.06
  68                   CONDUIT      0.00     0  00:00      0.00    0.00    0.13
  69                   CONDUIT      0.00     0  00:00      0.00    0.00    0.00
  70                   CONDUIT      0.00     0  00:00      0.00    0.00    0.00
  71                   CONDUIT      0.00     0  00:00      0.00    0.00    0.00
  72                   CONDUIT      0.00     0  00:00      0.00    0.00    0.00
  73                   CONDUIT      0.00     0  00:00      0.00    0.00    0.00
  74                   CONDUIT      0.00     0  00:00      0.00    0.00    0.00
  75                   CONDUIT      0.00     0  00:00      0.00    0.00    0.00
  76                   CONDUIT      0.00     0  00:00      0.00    0.00    0.00
  77                   CONDUIT      0.00     0  00:00      0.00    0.00    0.00
  78                   CONDUIT      0.00     0  00:00      0.00    0.00    0.00
  79                   CONDUIT      0.00     0  00:00      0.00    0.00    0.00
  80                   CONDUIT      0.00     0  00:00      0.00    0.00    0.00
  81                   CONDUIT      0.00     0  00:00      0.00    0.00    0.00
  82                   CONDUIT      0.00     0  00:00      0.00    0.00    0.00
  83                   CONDUIT      0.00     0  00:00      0.00    0.00    0.00
  84                   CONDUIT      0.00     0  00:00      0.00    0.00    0.00
  85                   CONDUIT      0.00     0  00:00      0.00    0.00    0.00
  86                   CONDUIT      0.00     0  00:00      0.00    0.00    0.00
  87                   CONDUIT      0.00     0  00:00      0.00    0.00    0.00
  88                   CONDUIT      0.00     0  00:00      0.00    0.00    0.00
  89                   CONDUIT      0.00     0  00:00      0.00    0.00    0.00
  90                   CONDUIT      0.00     0  00:00      0.00    0.00    0.00
  91                   CONDUIT      0.00     0  00:00      0.00    0.00    0.00
  92                   CONDUIT      0.00     0  00:00      0.00    0.00    0.00
  93                   CONDUIT      0.00     0  00:00      0.00    0.00    0.12
  94                   CONDUIT      0.00     0  00:00      0.00    0.00    0.00
  95                   CONDUIT      0.00     0  00:00      0.00    0.00    0.00
  96                   CONDUIT      0.00     0  00:00      0.00    0.00    0.00
  97                   CONDUIT      0.00     0  00:00      0.00    0.00    0.00
  98                   CONDUIT      0.00     0  00:00      0.00    0.00    0.00
  99                   CONDUIT      0.00     0  00:00      0.00    0.00    0.00
  100                  CONDUIT      0.00     0  00:00      0.00    0.00    0.00
  101                  CONDUIT      0.00     0  00:00      0.00    0.00    0.00
  102                  CONDUIT      0.00     0  00:00      0.00    0.00    0.00
  103                  CONDUIT      0.00     0  00:00      0.00    0.00    0.24
  104                  CONDUIT      0.00     0  00:00      0.00    0.00    0.00
  17                   CONDUIT      0.00     0  00:00      0.00    0.00    0.00
  18                   CONDUIT      0.00     0  00:00      0.00    0.00    0.00
  66                   CONDUIT      0.00     0  00:00      0.00    0.00    0.00
  105                  CONDUIT      0.00     0  00:00      0.00    0.00    0.00
  106                  CONDUIT      0.00     0  00:00      0.00    0.00    0.00
  107                  CONDUIT      0.00     0  00:00      0.00    0.00    0.00
  108                  CONDUIT      0.00     0  00:00      0.00    0.00    0.00
  109                  CONDUIT      0.00     0  00:00      0.00    0.00    0.00
  110                  CONDUIT      0.00     0  00:00      0.00    0.00    0.00
  111                  CONDUIT      0.00     0  00:00      0.00    0.00    0.00
  112                  CONDUIT      0.00     0  00:00      0.00    0.00    0.00
  113                  CONDUIT      0.00     0  00:00      0.00    0.00    0.00
  114                  CONDUIT      0.00     0  00:00      0.00    0.00    0.00
  115                  CONDUIT      0.00     0  00:00      0.00    0.00    0.00
  116                  CONDUIT      0.00     0  00:00      0.00    0.00    0.00
  117                  CONDUIT      0.00     0  00:00      0.00    0.00    0.00
  118                  CONDUIT      0.00     0  00:00      0.00    0.00    0.00
  119                  CONDUIT      0.00     0  00:00      0.00    0.00    0.00
  120                  CONDUIT      0.00     0  00:00      0.00    0.00    0.00
  121                  CONDUIT      0.00     0  00:00      0.00    0.00    0.00
  122                  CONDUIT      0.00     0  00:00      0.00    0.00    0.00
  123                  CONDUIT      0.00     0  00:00      0.00    0.00    0.00
  124                  CONDUIT      0.00     0  00:00      0.00    0.00    0.00
  125                  CONDUIT      0.00     0  00:00      0.00    0.00    0.00
  126                  CONDUIT      0.00     0  00:00      0.00    0.00    0.00
  127                  CONDUIT      0.00     0  00:00      0.00    0.00    0.00
  128                  CONDUIT      0.00     0  00:00      0.00    0.00    0.00
  129                  CONDUIT      0.00     0  00:00      0.00    0.00    0.00
  130                  CONDUIT      0.00     0  00:00      0.00    0.00    0.00
  131                  CONDUIT      0.00     0  00:00      0.00    0.00    0.00
  132                  CONDUIT      0.00     0  00:00      0.00    0.00    0.00
  133                  CONDUIT      0.00     0  00:00      0.00    0.00    0.00
  134                  CONDUIT      0.00     0  00:00      0.00    0.00    0.00
  135                  CONDUIT      0.00     0  00:00      0.00    0.00    0.00
  136                  CONDUIT      0.00     0  00:00      0.00    0.00    0.00
  137                  CONDUIT      0.00     0  00:00      0.00    0.00    0.00
  138                  CONDUIT      0.00     0  00:00      0.00    0.00    0.00
  139                  CONDUIT      0.00     0  00:00      0.00    0.00    0.00
  140                  CONDUIT      0.00     0  00:00      0.00    0.00    0.00
  141                  CONDUIT      0.00     0  00:00      0.00    0.00    0.00
  142                  CONDUIT      0.00     0  00:00      0.00    0.00    0.00
  143                  CONDUIT      0.00     0  00:00      0.00    0.00    0.00
  145                  CONDUIT      0.00     0  00:00      0.00    0.00    0.00
  146                  CONDUIT      0.00     0  00:00      0.00    0.00    0.00
  147                  CONDUIT      0.00     0  00:00      0.00    0.00    0.00
  148                  CONDUIT      0.00     0  00:00      0.00    0.00    0.00
  149                  CONDUIT      0.00     0  00:00      0.00    0.00    0.00
  
  
  ***************************
  Flow Classification Summary
  ***************************
  
  -------------------------------------------------------------------------------------
                      Adjusted    ---------- Fraction of Time in Flow Class ---------- 
                       /Actual         Up    Down  Sub   Sup   Up    Down  Norm  Inlet 
  Conduit               Length    Dry  Dry   Dry   Crit  Crit  Crit  Crit  Ltd   Ctrl  
  -------------------------------------------------------------------------------------
  1                       1.00   1.00  0.00  0.00  0.00  0.00  0.00  0.00  0.00  0.00
  2                       1.00   1.00  0.00  0.00  0.00  0.00  0.00  0.00  0.00  0.00
  3                       1.00   1.00  0.00  0.00  0.00  0.00  0.00  0.00  0.00  0.00
  4                       1.00   1.00  0.00  0.00  0.00  0.00  0.00  0.00  0.00  0.00
  5                       1.16   1.00  0.00  0.00  0.00  0.00  0.00  0.00  0.00  0.00
  6                       1.00   0.00  1.00  0.00  0.00  0.00  0.00  0.00  0.05  0.00
  7                       1.00   0.00  0.00  0.00  1.00  0.00  0.00  0.00  0.00  0.00
  8                       1.00   0.00  0.00  0.00  1.00  0.00  0.00  0.00  0.00  0.00
  9                       1.00   0.00  0.00  0.00  1.00  0.00  0.00  0.00  0.00  0.00
  10                      1.00   0.00  0.00  0.00  1.00  0.00  0.00  0.00  0.00  0.00
  11                      1.00   0.00  0.00  0.00  1.00  0.00  0.00  0.00  0.00  0.00
  12                      1.00   0.00  0.00  0.00  1.00  0.00  0.00  0.00  0.00  0.00
  13                      1.00   0.00  0.00  0.00  1.00  0.00  0.00  0.00  0.00  0.00
  14                      1.00   0.00  0.00  0.00  1.00  0.00  0.00  0.00  0.00  0.00
  15                      1.12   0.00  0.00  0.00  1.00  0.00  0.00  0.00  0.00  0.00
  19                      1.00   1.00  0.00  0.00  0.00  0.00  0.00  0.00  0.00  0.00
  20                      1.00   1.00  0.00  0.00  0.00  0.00  0.00  0.00  0.00  0.00
  21                      1.00   1.00  0.00  0.00  0.00  0.00  0.00  0.00  0.00  0.00
  22                      1.00   1.00  0.00  0.00  0.00  0.00  0.00  0.00  0.00  0.00
  23                      1.00   1.00  0.00  0.00  0.00  0.00  0.00  0.00  0.00  0.00
  24                      1.00   1.00  0.00  0.00  0.00  0.00  0.00  0.00  0.00  0.00
  25                      1.49   0.00  1.00  0.00  0.00  0.00  0.00  0.00  0.00  0.00
  26                      1.00   0.00  0.00  0.00  1.00  0.00  0.00  0.00  0.00  0.00
  27                      1.00   0.00  0.00  0.00  1.00  0.00  0.00  0.00  0.00  0.00
  28                      1.00   0.00  0.00  0.00  1.00  0.00  0.00  0.00  0.00  0.00
  29                      1.00   0.00  0.00  0.00  1.00  0.00  0.00  0.00  0.05  0.00
  30                      1.00   0.00  0.00  0.00  1.00  0.00  0.00  0.00  0.00  0.00
  31                      1.00   0.00  0.00  0.00  1.00  0.00  0.00  0.00  0.05  0.00
  32                      1.00   0.00  0.00  0.00  1.00  0.00  0.00  0.00  0.00  0.00
  33                      1.00   0.00  1.00  0.00  0.00  0.00  0.00  0.00  0.00  0.00
  34                      1.00   1.00  0.00  0.00  0.00  0.00  0.00  0.00  0.00  0.00
  35                      1.00   1.00  0.00  0.00  0.00  0.00  0.00  0.00  0.00  0.00
  36                      1.00   1.00  0.00  0.00  0.00  0.00  0.00  0.00  0.00  0.00
  37                      1.00   1.00  0.00  0.00  0.00  0.00  0.00  0.00  0.00  0.00
  38                      1.00   1.00  0.00  0.00  0.00  0.00  0.00  0.00  0.00  0.00
  39                      1.00   1.00  0.00  0.00  0.00  0.00  0.00  0.00  0.00  0.00
  40                      1.00   1.00  0.00  0.00  0.00  0.00  0.00  0.00  0.00  0.00
  41                      1.00   1.00  0.00  0.00  0.00  0.00  0.00  0.00  0.00  0.00
  42                      1.00   1.00  0.00  0.00  0.00  0.00  0.00  0.00  0.00  0.00
  43                      1.00   1.00  0.00  0.00  0.00  0.00  0.00  0.00  0.00  0.00
  44                      1.00   1.00  0.00  0.00  0.00  0.00  0.00  0.00  0.00  0.00
  45                      1.00   1.00  0.00  0.00  0.00  0.00  0.00  0.00  0.00  0.00
  46                      1.03   1.00  0.00  0.00  0.00  0.00  0.00  0.00  0.00  0.00
  47                      1.00   1.00  0.00  0.00  0.00  0.00  0.00  0.00  0.00  0.00
  48                      1.00   1.00  0.00  0.00  0.00  0.00  0.00  0.00  0.00  0.00
  49                      1.00   1.00  0.00  0.00  0.00  0.00  0.00  0.00  0.00  0.00
  50                      1.00   1.00  0.00  0.00  0.00  0.00  0.00  0.00  0.00  0.00
  51                      1.00   1.00  0.00  0.00  0.00  0.00  0.00  0.00  0.00  0.00
  52                      1.00   1.00  0.00  0.00  0.00  0.00  0.00  0.00  0.00  0.00
  53                      1.00   1.00  0.00  0.00  0.00  0.00  0.00  0.00  0.00  0.00
  54                      1.00   1.00  0.00  0.00  0.00  0.00  0.00  0.00  0.00  0.00
  55                      1.00   1.00  0.00  0.00  0.00  0.00  0.00  0.00  0.00  0.00
  56                      1.00   1.00  0.00  0.00  0.00  0.00  0.00  0.00  0.00  0.00
  57                      1.00   1.00  0.00  0.00  0.00  0.00  0.00  0.00  0.00  0.00
  58                      1.00   1.00  0.00  0.00  0.00  0.00  0.00  0.00  0.00  0.00
  59                      1.00   1.00  0.00  0.00  0.00  0.00  0.00  0.00  0.00  0.00
  60                      1.00   1.00  0.00  0.00  0.00  0.00  0.00  0.00  0.00  0.00
  61                      1.00   1.00  0.00  0.00  0.00  0.00  0.00  0.00  0.00  0.00
  62                      1.04   1.00  0.00  0.00  0.00  0.00  0.00  0.00  0.00  0.00
  63                      1.00   1.00  0.00  0.00  0.00  0.00  0.00  0.00  0.00  0.00
  64                      1.00   1.00  0.00  0.00  0.00  0.00  0.00  0.00  0.00  0.00
  65                      1.00   0.00  1.00  0.00  0.00  0.00  0.00  0.00  0.00  0.00
  67                      1.00   0.00  0.00  0.00  1.00  0.00  0.00  0.00  0.00  0.00
  68                      1.95   0.00  1.00  0.00  0.00  0.00  0.00  0.00  0.00  0.00
  69                      3.49   1.00  0.00  0.00  0.00  0.00  0.00  0.00  0.00  0.00
  70                      1.00   1.00  0.00  0.00  0.00  0.00  0.00  0.00  0.00  0.00
  71                      1.63   1.00  0.00  0.00  0.00  0.00  0.00  0.00  0.00  0.00
  72                      1.00   1.00  0.00  0.00  0.00  0.00  0.00  0.00  0.00  0.00
  73                      1.00   1.00  0.00  0.00  0.00  0.00  0.00  0.00  0.00  0.00
  74                      1.00   1.00  0.00  0.00  0.00  0.00  0.00  0.00  0.00  0.00
  75                      1.00   1.00  0.00  0.00  0.00  0.00  0.00  0.00  0.00  0.00
  76                      1.00   1.00  0.00  0.00  0.00  0.00  0.00  0.00  0.00  0.00
  77                      1.00   1.00  0.00  0.00  0.00  0.00  0.00  0.00  0.00  0.00
  78                      1.00   1.00  0.00  0.00  0.00  0.00  0.00  0.00  0.00  0.00
  79                      1.00   1.00  0.00  0.00  0.00  0.00  0.00  0.00  0.00  0.00
  80                      1.00   1.00  0.00  0.00  0.00  0.00  0.00  0.00  0.00  0.00
  81                      1.00   1.00  0.00  0.00  0.00  0.00  0.00  0.00  0.00  0.00
  82                      1.00   1.00  0.00  0.00  0.00  0.00  0.00  0.00  0.00  0.00
  83                      1.00   1.00  0.00  0.00  0.00  0.00  0.00  0.00  0.00  0.00
  84                      1.00   1.00  0.00  0.00  0.00  0.00  0.00  0.00  0.00  0.00
  85                      1.00   1.00  0.00  0.00  0.00  0.00  0.00  0.00  0.00  0.00
  86                      1.00   1.00  0.00  0.00  0.00  0.00  0.00  0.00  0.00  0.00
  87                      1.00   1.00  0.00  0.00  0.00  0.00  0.00  0.00  0.00  0.00
  88                      1.04   1.00  0.00  0.00  0.00  0.00  0.00  0.00  0.00  0.00
  89                      1.00   1.00  0.00  0.00  0.00  0.00  0.00  0.00  0.00  0.00
  90                      9.81   1.00  0.00  0.00  0.00  0.00  0.00  0.00  0.00  0.00
  91                     40.90   1.00  0.00  0.00  0.00  0.00  0.00  0.00  0.00  0.00
  92                    776.95   1.00  0.00  0.00  0.00  0.00  0.00  0.00  0.00  0.00
  93                      8.28   0.00  1.00  0.00  0.00  0.00  0.00  0.00  0.05  0.00
  94                      1.46   0.00  1.00  0.00  0.00  0.00  0.00  0.00  0.00  0.00
  95                      1.00   1.00  0.00  0.00  0.00  0.00  0.00  0.00  0.00  0.00
  96                      1.93   1.00  0.00  0.00  0.00  0.00  0.00  0.00  0.00  0.00
  97                      1.21   1.00  0.00  0.00  0.00  0.00  0.00  0.00  0.00  0.00
  98                      1.20   1.00  0.00  0.00  0.00  0.00  0.00  0.00  0.00  0.00
  99                      1.35   1.00  0.00  0.00  0.00  0.00  0.00  0.00  0.00  0.00
  100                     1.54   1.00  0.00  0.00  0.00  0.00  0.00  0.00  0.00  0.00
  101                     1.00   1.00  0.00  0.00  0.00  0.00  0.00  0.00  0.00  0.00
  102                     1.16   1.00  0.00  0.00  0.00  0.00  0.00  0.00  0.00  0.00
  103                     1.00   0.00  1.00  0.00  0.00  0.00  0.00  0.00  0.00  0.00
  104                     1.00   1.00  0.00  0.00  0.00  0.00  0.00  0.00  0.00  0.00
  17                      1.00   1.00  0.00  0.00  0.00  0.00  0.00  0.00  0.00  0.00
  18                      1.00   1.00  0.00  0.00  0.00  0.00  0.00  0.00  0.00  0.00
  66                      1.00   1.00  0.00  0.00  0.00  0.00  0.00  0.00  0.00  0.00
  105                     1.00   1.00  0.00  0.00  0.00  0.00  0.00  0.00  0.00  0.00
  106                     1.00   1.00  0.00  0.00  0.00  0.00  0.00  0.00  0.00  0.00
  107                     1.00   1.00  0.00  0.00  0.00  0.00  0.00  0.00  0.00  0.00
  108                     1.00   1.00  0.00  0.00  0.00  0.00  0.00  0.00  0.00  0.00
  109                     1.00   1.00  0.00  0.00  0.00  0.00  0.00  0.00  0.00  0.00
  110                     1.00   1.00  0.00  0.00  0.00  0.00  0.00  0.00  0.00  0.00
  111                     1.00   1.00  0.00  0.00  0.00  0.00  0.00  0.00  0.00  0.00
  112                     1.00   1.00  0.00  0.00  0.00  0.00  0.00  0.00  0.00  0.00
  113                     1.31   1.00  0.00  0.00  0.00  0.00  0.00  0.00  0.00  0.00
  114                     1.00   1.00  0.00  0.00  0.00  0.00  0.00  0.00  0.00  0.00
  115                     1.00   1.00  0.00  0.00  0.00  0.00  0.00  0.00  0.00  0.00
  116                     1.00   1.00  0.00  0.00  0.00  0.00  0.00  0.00  0.00  0.00
  117                     1.00   1.00  0.00  0.00  0.00  0.00  0.00  0.00  0.00  0.00
  118                     1.00   1.00  0.00  0.00  0.00  0.00  0.00  0.00  0.00  0.00
  119                     1.00   1.00  0.00  0.00  0.00  0.00  0.00  0.00  0.00  0.00
  120                     1.00   1.00  0.00  0.00  0.00  0.00  0.00  0.00  0.00  0.00
  121                     1.00   1.00  0.00  0.00  0.00  0.00  0.00  0.00  0.00  0.00
  122                     1.00   1.00  0.00  0.00  0.00  0.00  0.00  0.00  0.00  0.00
  123                     1.27   1.00  0.00  0.00  0.00  0.00  0.00  0.00  0.00  0.00
  124                     1.00   1.00  0.00  0.00  0.00  0.00  0.00  0.00  0.00  0.00
  125                     1.00   1.00  0.00  0.00  0.00  0.00  0.00  0.00  0.00  0.00
  126                     1.00   1.00  0.00  0.00  0.00  0.00  0.00  0.00  0.00  0.00
  127                     1.00   1.00  0.00  0.00  0.00  0.00  0.00  0.00  0.00  0.00
  128                     1.00   1.00  0.00  0.00  0.00  0.00  0.00  0.00  0.00  0.00
  129                     1.00   1.00  0.00  0.00  0.00  0.00  0.00  0.00  0.00  0.00
  130                     1.00   1.00  0.00  0.00  0.00  0.00  0.00  0.00  0.00  0.00
  131                     1.00   1.00  0.00  0.00  0.00  0.00  0.00  0.00  0.00  0.00
  132                     1.85   1.00  0.00  0.00  0.00  0.00  0.00  0.00  0.00  0.00
  133                     1.00   1.00  0.00  0.00  0.00  0.00  0.00  0.00  0.00  0.00
  134                     1.00   1.00  0.00  0.00  0.00  0.00  0.00  0.00  0.00  0.00
  135                     1.12   1.00  0.00  0.00  0.00  0.00  0.00  0.00  0.00  0.00
  136                     1.00   1.00  0.00  0.00  0.00  0.00  0.00  0.00  0.00  0.00
  137                     1.00   1.00  0.00  0.00  0.00  0.00  0.00  0.00  0.00  0.00
  138                     1.00   1.00  0.00  0.00  0.00  0.00  0.00  0.00  0.00  0.00
  139                     1.00   1.00  0.00  0.00  0.00  0.00  0.00  0.00  0.00  0.00
  140                     1.33   1.00  0.00  0.00  0.00  0.00  0.00  0.00  0.00  0.00
  141                     1.18   1.00  0.00  0.00  0.00  0.00  0.00  0.00  0.00  0.00
  142                     1.00   1.00  0.00  0.00  0.00  0.00  0.00  0.00  0.00  0.00
  143                     1.00   1.00  0.00  0.00  0.00  0.00  0.00  0.00  0.00  0.00
  145                     1.00   1.00  0.00  0.00  0.00  0.00  0.00  0.00  0.00  0.00
  146                     2.31   1.00  0.00  0.00  0.00  0.00  0.00  0.00  0.00  0.00
  147                    90.89   1.00  0.00  0.00  0.00  0.00  0.00  0.00  0.00  0.00
  148                     2.61   1.00  0.00  0.00  0.00  0.00  0.00  0.00  0.00  0.00
  149                     1.00   1.00  0.00  0.00  0.00  0.00  0.00  0.00  0.00  0.00
  
  
  *************************
  Conduit Surcharge Summary
  *************************
  
  ----------------------------------------------------------------------------
                                                           Hours        Hours 
                         --------- Hours Full --------   Above Full   Capacity
  Conduit                Both Ends  Upstream  Dnstream   Normal Flow   Limited
  ----------------------------------------------------------------------------
  7                           0.01      0.01     10.01      0.01         0.01
  8                          10.01     10.01     10.01      0.01         0.01
  9                          10.01     10.01     10.01      0.01         0.01
  10                         10.01     10.01     10.01      0.01         0.01
  11                         10.01     10.01     10.01      0.01         0.01
  12                          0.01      0.01     10.01      0.01         0.01
  14                          0.01      0.01     10.01      0.01         0.01
  15                          0.01      0.01     10.01      0.01         0.01
  31                          0.01      0.01     10.01      0.01         0.01
  32                         10.01     10.01     10.01      0.01         0.01
  
  
  ************
  Node Results
  ************
  
  <<< Node 1 >>>
  ----------------------------------------------------------------
                           Inflow  Flooding     Depth      Head
  Date        Time            CFS       CFS      feet      feet
  ----------------------------------------------------------------
   01/08/2020 14:00:00      0.000     0.000     0.000    10.010
   01/08/2020 14:15:00      0.000     0.000     0.000    10.010
   01/08/2020 14:30:00      0.000     0.000     0.000    10.010
   01/08/2020 14:45:00      0.000     0.000     0.000    10.010
   01/08/2020 15:00:00      0.000     0.000     0.000    10.010
   01/08/2020 15:15:00      0.000     0.000     0.000    10.010
   01/08/2020 15:30:00      0.000     0.000     0.000    10.010
   01/08/2020 15:45:00      0.000     0.000     0.000    10.010
   01/08/2020 16:00:00      0.000     0.000     0.000    10.010
   01/08/2020 16:15:00      0.000     0.000     0.000    10.010
   01/08/2020 16:30:00      0.000     0.000     0.000    10.010
   01/08/2020 16:45:00      0.000     0.000     0.000    10.010
   01/08/2020 17:00:00      0.000     0.000     0.000    10.010
   01/08/2020 17:15:00      0.000     0.000     0.000    10.010
   01/08/2020 17:30:00      0.000     0.000     0.000    10.010
   01/08/2020 17:45:00      0.000     0.000     0.000    10.010
   01/08/2020 18:00:00      0.000     0.000     0.000    10.010
   01/08/2020 18:15:00      0.000     0.000     0.000    10.010
   01/08/2020 18:30:00      0.000     0.000     0.000    10.010
   01/08/2020 18:45:00      0.000     0.000     0.000    10.010
   01/08/2020 19:00:00      0.000     0.000     0.000    10.010
   01/08/2020 19:15:00      0.000     0.000     0.000    10.010
   01/08/2020 19:30:00      0.000     0.000     0.000    10.010
   01/08/2020 19:45:00      0.000     0.000     0.000    10.010
   01/08/2020 20:00:00      0.000     0.000     0.000    10.010
   01/08/2020 20:15:00      0.000     0.000     0.000    10.010
   01/08/2020 20:30:00      0.000     0.000     0.000    10.010
   01/08/2020 20:45:00      0.000     0.000     0.000    10.010
   01/08/2020 21:00:00      0.000     0.000     0.000    10.010
   01/08/2020 21:15:00      0.000     0.000     0.000    10.010
   01/08/2020 21:30:00      0.000     0.000     0.000    10.010
   01/08/2020 21:45:00      0.000     0.000     0.000    10.010
   01/08/2020 22:00:00      0.000     0.000     0.000    10.010
   01/08/2020 22:15:00      0.000     0.000     0.000    10.010
   01/08/2020 22:30:00      0.000     0.000     0.000    10.010
   01/08/2020 22:45:00      0.000     0.000     0.000    10.010
   01/08/2020 23:00:00      0.000     0.000     0.000    10.010
   01/08/2020 23:15:00      0.000     0.000     0.000    10.010
   01/08/2020 23:30:00      0.000     0.000     0.000    10.010
   01/08/2020 23:45:00      0.000     0.000     0.000    10.010
   01/09/2020 00:00:00      0.000     0.000     0.000    10.010
  
  
  <<< Node 2 >>>
  ----------------------------------------------------------------
                           Inflow  Flooding     Depth      Head
  Date        Time            CFS       CFS      feet      feet
  ----------------------------------------------------------------
   01/08/2020 14:00:00      0.000     0.000     0.000     8.990
   01/08/2020 14:15:00      0.000     0.000     0.000     8.990
   01/08/2020 14:30:00      0.000     0.000     0.000     8.990
   01/08/2020 14:45:00      0.000     0.000     0.000     8.990
   01/08/2020 15:00:00      0.000     0.000     0.000     8.990
   01/08/2020 15:15:00      0.000     0.000     0.000     8.990
   01/08/2020 15:30:00      0.000     0.000     0.000     8.990
   01/08/2020 15:45:00      0.000     0.000     0.000     8.990
   01/08/2020 16:00:00      0.000     0.000     0.000     8.990
   01/08/2020 16:15:00      0.000     0.000     0.000     8.990
   01/08/2020 16:30:00      0.000     0.000     0.000     8.990
   01/08/2020 16:45:00      0.000     0.000     0.000     8.990
   01/08/2020 17:00:00      0.000     0.000     0.000     8.990
   01/08/2020 17:15:00      0.000     0.000     0.000     8.990
   01/08/2020 17:30:00      0.000     0.000     0.000     8.990
   01/08/2020 17:45:00      0.000     0.000     0.000     8.990
   01/08/2020 18:00:00      0.000     0.000     0.000     8.990
   01/08/2020 18:15:00      0.000     0.000     0.000     8.990
   01/08/2020 18:30:00      0.000     0.000     0.000     8.990
   01/08/2020 18:45:00      0.000     0.000     0.000     8.990
   01/08/2020 19:00:00      0.000     0.000     0.000     8.990
   01/08/2020 19:15:00      0.000     0.000     0.000     8.990
   01/08/2020 19:30:00      0.000     0.000     0.000     8.990
   01/08/2020 19:45:00      0.000     0.000     0.000     8.990
   01/08/2020 20:00:00      0.000     0.000     0.000     8.990
   01/08/2020 20:15:00      0.000     0.000     0.000     8.990
   01/08/2020 20:30:00      0.000     0.000     0.000     8.990
   01/08/2020 20:45:00      0.000     0.000     0.000     8.990
   01/08/2020 21:00:00      0.000     0.000     0.000     8.990
   01/08/2020 21:15:00      0.000     0.000     0.000     8.990
   01/08/2020 21:30:00      0.000     0.000     0.000     8.990
   01/08/2020 21:45:00      0.000     0.000     0.000     8.990
   01/08/2020 22:00:00      0.000     0.000     0.000     8.990
   01/08/2020 22:15:00      0.000     0.000     0.000     8.990
   01/08/2020 22:30:00      0.000     0.000     0.000     8.990
   01/08/2020 22:45:00      0.000     0.000     0.000     8.990
   01/08/2020 23:00:00      0.000     0.000     0.000     8.990
   01/08/2020 23:15:00      0.000     0.000     0.000     8.990
   01/08/2020 23:30:00      0.000     0.000     0.000     8.990
   01/08/2020 23:45:00      0.000     0.000     0.000     8.990
   01/09/2020 00:00:00      0.000     0.000     0.000     8.990
  
  
  <<< Node 3 >>>
  ----------------------------------------------------------------
                           Inflow  Flooding     Depth      Head
  Date        Time            CFS       CFS      feet      feet
  ----------------------------------------------------------------
   01/08/2020 14:00:00      0.000     0.000     0.000    -3.220
   01/08/2020 14:15:00      0.000     0.000     0.000    -3.220
   01/08/2020 14:30:00      0.000     0.000     0.000    -3.220
   01/08/2020 14:45:00      0.000     0.000     0.000    -3.220
   01/08/2020 15:00:00      0.000     0.000     0.000    -3.220
   01/08/2020 15:15:00      0.000     0.000     0.000    -3.220
   01/08/2020 15:30:00      0.000     0.000     0.000    -3.220
   01/08/2020 15:45:00      0.000     0.000     0.000    -3.220
   01/08/2020 16:00:00      0.000     0.000     0.000    -3.220
   01/08/2020 16:15:00      0.000     0.000     0.000    -3.220
   01/08/2020 16:30:00      0.000     0.000     0.000    -3.220
   01/08/2020 16:45:00      0.000     0.000     0.000    -3.220
   01/08/2020 17:00:00      0.000     0.000     0.000    -3.220
   01/08/2020 17:15:00      0.000     0.000     0.000    -3.220
   01/08/2020 17:30:00      0.000     0.000     0.000    -3.220
   01/08/2020 17:45:00      0.000     0.000     0.000    -3.220
   01/08/2020 18:00:00      0.000     0.000     0.000    -3.220
   01/08/2020 18:15:00      0.000     0.000     0.000    -3.220
   01/08/2020 18:30:00      0.000     0.000     0.000    -3.220
   01/08/2020 18:45:00      0.000     0.000     0.000    -3.220
   01/08/2020 19:00:00      0.000     0.000     0.000    -3.220
   01/08/2020 19:15:00      0.000     0.000     0.000    -3.220
   01/08/2020 19:30:00      0.000     0.000     0.000    -3.220
   01/08/2020 19:45:00      0.000     0.000     0.000    -3.220
   01/08/2020 20:00:00      0.000     0.000     0.000    -3.220
   01/08/2020 20:15:00      0.000     0.000     0.000    -3.220
   01/08/2020 20:30:00      0.000     0.000     0.000    -3.220
   01/08/2020 20:45:00      0.000     0.000     0.000    -3.220
   01/08/2020 21:00:00      0.000     0.000     0.000    -3.220
   01/08/2020 21:15:00      0.000     0.000     0.000    -3.220
   01/08/2020 21:30:00      0.000     0.000     0.000    -3.220
   01/08/2020 21:45:00      0.000     0.000     0.000    -3.220
   01/08/2020 22:00:00      0.000     0.000     0.000    -3.220
   01/08/2020 22:15:00      0.000     0.000     0.000    -3.220
   01/08/2020 22:30:00      0.000     0.000     0.000    -3.220
   01/08/2020 22:45:00      0.000     0.000     0.000    -3.220
   01/08/2020 23:00:00      0.000     0.000     0.000    -3.220
   01/08/2020 23:15:00      0.000     0.000     0.000    -3.220
   01/08/2020 23:30:00      0.000     0.000     0.000    -3.220
   01/08/2020 23:45:00      0.000     0.000     0.000    -3.220
   01/09/2020 00:00:00      0.000     0.000     0.000    -3.220
  
  
  <<< Node 4 >>>
  ----------------------------------------------------------------
                           Inflow  Flooding     Depth      Head
  Date        Time            CFS       CFS      feet      feet
  ----------------------------------------------------------------
   01/08/2020 14:00:00      0.000     0.000     0.000    -1.560
   01/08/2020 14:15:00      0.000     0.000     0.000    -1.560
   01/08/2020 14:30:00      0.000     0.000     0.000    -1.560
   01/08/2020 14:45:00      0.000     0.000     0.000    -1.560
   01/08/2020 15:00:00      0.000     0.000     0.000    -1.560
   01/08/2020 15:15:00      0.000     0.000     0.000    -1.560
   01/08/2020 15:30:00      0.000     0.000     0.000    -1.560
   01/08/2020 15:45:00      0.000     0.000     0.000    -1.560
   01/08/2020 16:00:00      0.000     0.000     0.000    -1.560
   01/08/2020 16:15:00      0.000     0.000     0.000    -1.560
   01/08/2020 16:30:00      0.000     0.000     0.000    -1.560
   01/08/2020 16:45:00      0.000     0.000     0.000    -1.560
   01/08/2020 17:00:00      0.000     0.000     0.000    -1.560
   01/08/2020 17:15:00      0.000     0.000     0.000    -1.560
   01/08/2020 17:30:00      0.000     0.000     0.000    -1.560
   01/08/2020 17:45:00      0.000     0.000     0.000    -1.560
   01/08/2020 18:00:00      0.000     0.000     0.000    -1.560
   01/08/2020 18:15:00      0.000     0.000     0.000    -1.560
   01/08/2020 18:30:00      0.000     0.000     0.000    -1.560
   01/08/2020 18:45:00      0.000     0.000     0.000    -1.560
   01/08/2020 19:00:00      0.000     0.000     0.000    -1.560
   01/08/2020 19:15:00      0.000     0.000     0.000    -1.560
   01/08/2020 19:30:00      0.000     0.000     0.000    -1.560
   01/08/2020 19:45:00      0.000     0.000     0.000    -1.560
   01/08/2020 20:00:00      0.000     0.000     0.000    -1.560
   01/08/2020 20:15:00      0.000     0.000     0.000    -1.560
   01/08/2020 20:30:00      0.000     0.000     0.000    -1.560
   01/08/2020 20:45:00      0.000     0.000     0.000    -1.560
   01/08/2020 21:00:00      0.000     0.000     0.000    -1.560
   01/08/2020 21:15:00      0.000     0.000     0.000    -1.560
   01/08/2020 21:30:00      0.000     0.000     0.000    -1.560
   01/08/2020 21:45:00      0.000     0.000     0.000    -1.560
   01/08/2020 22:00:00      0.000     0.000     0.000    -1.560
   01/08/2020 22:15:00      0.000     0.000     0.000    -1.560
   01/08/2020 22:30:00      0.000     0.000     0.000    -1.560
   01/08/2020 22:45:00      0.000     0.000     0.000    -1.560
   01/08/2020 23:00:00      0.000     0.000     0.000    -1.560
   01/08/2020 23:15:00      0.000     0.000     0.000    -1.560
   01/08/2020 23:30:00      0.000     0.000     0.000    -1.560
   01/08/2020 23:45:00      0.000     0.000     0.000    -1.560
   01/09/2020 00:00:00      0.000     0.000     0.000    -1.560
  
  
  <<< Node 5 >>>
  ----------------------------------------------------------------
                           Inflow  Flooding     Depth      Head
  Date        Time            CFS       CFS      feet      feet
  ----------------------------------------------------------------
   01/08/2020 14:00:00      0.000     0.000     0.000     8.590
   01/08/2020 14:15:00      0.000     0.000     0.000     8.590
   01/08/2020 14:30:00      0.000     0.000     0.000     8.590
   01/08/2020 14:45:00      0.000     0.000     0.000     8.590
   01/08/2020 15:00:00      0.000     0.000     0.000     8.590
   01/08/2020 15:15:00      0.000     0.000     0.000     8.590
   01/08/2020 15:30:00      0.000     0.000     0.000     8.590
   01/08/2020 15:45:00      0.000     0.000     0.000     8.590
   01/08/2020 16:00:00      0.000     0.000     0.000     8.590
   01/08/2020 16:15:00      0.000     0.000     0.000     8.590
   01/08/2020 16:30:00      0.000     0.000     0.000     8.590
   01/08/2020 16:45:00      0.000     0.000     0.000     8.590
   01/08/2020 17:00:00      0.000     0.000     0.000     8.590
   01/08/2020 17:15:00      0.000     0.000     0.000     8.590
   01/08/2020 17:30:00      0.000     0.000     0.000     8.590
   01/08/2020 17:45:00      0.000     0.000     0.000     8.590
   01/08/2020 18:00:00      0.000     0.000     0.000     8.590
   01/08/2020 18:15:00      0.000     0.000     0.000     8.590
   01/08/2020 18:30:00      0.000     0.000     0.000     8.590
   01/08/2020 18:45:00      0.000     0.000     0.000     8.590
   01/08/2020 19:00:00      0.000     0.000     0.000     8.590
   01/08/2020 19:15:00      0.000     0.000     0.000     8.590
   01/08/2020 19:30:00      0.000     0.000     0.000     8.590
   01/08/2020 19:45:00      0.000     0.000     0.000     8.590
   01/08/2020 20:00:00      0.000     0.000     0.000     8.590
   01/08/2020 20:15:00      0.000     0.000     0.000     8.590
   01/08/2020 20:30:00      0.000     0.000     0.000     8.590
   01/08/2020 20:45:00      0.000     0.000     0.000     8.590
   01/08/2020 21:00:00      0.000     0.000     0.000     8.590
   01/08/2020 21:15:00      0.000     0.000     0.000     8.590
   01/08/2020 21:30:00      0.000     0.000     0.000     8.590
   01/08/2020 21:45:00      0.000     0.000     0.000     8.590
   01/08/2020 22:00:00      0.000     0.000     0.000     8.590
   01/08/2020 22:15:00      0.000     0.000     0.000     8.590
   01/08/2020 22:30:00      0.000     0.000     0.000     8.590
   01/08/2020 22:45:00      0.000     0.000     0.000     8.590
   01/08/2020 23:00:00      0.000     0.000     0.000     8.590
   01/08/2020 23:15:00      0.000     0.000     0.000     8.590
   01/08/2020 23:30:00      0.000     0.000     0.000     8.590
   01/08/2020 23:45:00      0.000     0.000     0.000     8.590
   01/09/2020 00:00:00      0.000     0.000     0.000     8.590
  
  
  <<< Node 6 >>>
  ----------------------------------------------------------------
                           Inflow  Flooding     Depth      Head
  Date        Time            CFS       CFS      feet      feet
  ----------------------------------------------------------------
   01/08/2020 14:00:00      0.000     0.000     0.000     1.670
   01/08/2020 14:15:00      0.000     0.000     0.000     1.670
   01/08/2020 14:30:00      0.000     0.000     0.000     1.670
   01/08/2020 14:45:00      0.000     0.000     0.000     1.670
   01/08/2020 15:00:00      0.000     0.000     0.000     1.670
   01/08/2020 15:15:00      0.000     0.000     0.000     1.670
   01/08/2020 15:30:00      0.000     0.000     0.000     1.670
   01/08/2020 15:45:00      0.000     0.000     0.000     1.670
   01/08/2020 16:00:00      0.000     0.000     0.000     1.670
   01/08/2020 16:15:00      0.000     0.000     0.000     1.670
   01/08/2020 16:30:00      0.000     0.000     0.000     1.670
   01/08/2020 16:45:00      0.000     0.000     0.000     1.670
   01/08/2020 17:00:00      0.000     0.000     0.000     1.670
   01/08/2020 17:15:00      0.000     0.000     0.000     1.670
   01/08/2020 17:30:00      0.000     0.000     0.000     1.670
   01/08/2020 17:45:00      0.000     0.000     0.000     1.670
   01/08/2020 18:00:00      0.000     0.000     0.000     1.670
   01/08/2020 18:15:00      0.000     0.000     0.000     1.670
   01/08/2020 18:30:00      0.000     0.000     0.000     1.670
   01/08/2020 18:45:00      0.000     0.000     0.000     1.670
   01/08/2020 19:00:00      0.000     0.000     0.000     1.670
   01/08/2020 19:15:00      0.000     0.000     0.000     1.670
   01/08/2020 19:30:00      0.000     0.000     0.000     1.670
   01/08/2020 19:45:00      0.000     0.000     0.000     1.670
   01/08/2020 20:00:00      0.000     0.000     0.000     1.670
   01/08/2020 20:15:00      0.000     0.000     0.000     1.670
   01/08/2020 20:30:00      0.000     0.000     0.000     1.670
   01/08/2020 20:45:00      0.000     0.000     0.000     1.670
   01/08/2020 21:00:00      0.000     0.000     0.000     1.670
   01/08/2020 21:15:00      0.000     0.000     0.000     1.670
   01/08/2020 21:30:00      0.000     0.000     0.000     1.670
[...]
   01/08/2020 16:15:00      0.000     0.000     0.000     0.000
   01/08/2020 16:30:00      0.000     0.000     0.000     0.000
   01/08/2020 16:45:00      0.000     0.000     0.000     0.000
   01/08/2020 17:00:00      0.000     0.000     0.000     0.000
   01/08/2020 17:15:00      0.000     0.000     0.000     0.000
   01/08/2020 17:30:00      0.000     0.000     0.000     0.000
   01/08/2020 17:45:00      0.000     0.000     0.000     0.000
   01/08/2020 18:00:00      0.000     0.000     0.000     0.000
   01/08/2020 18:15:00      0.000     0.000     0.000     0.000
   01/08/2020 18:30:00      0.000     0.000     0.000     0.000
   01/08/2020 18:45:00      0.000     0.000     0.000     0.000
   01/08/2020 19:00:00      0.000     0.000     0.000     0.000
   01/08/2020 19:15:00      0.000     0.000     0.000     0.000
   01/08/2020 19:30:00      0.000     0.000     0.000     0.000
   01/08/2020 19:45:00      0.000     0.000     0.000     0.000
   01/08/2020 20:00:00      0.000     0.000     0.000     0.000
   01/08/2020 20:15:00      0.000     0.000     0.000     0.000
   01/08/2020 20:30:00      0.000     0.000     0.000     0.000
   01/08/2020 20:45:00      0.000     0.000     0.000     0.000
   01/08/2020 21:00:00      0.000     0.000     0.000     0.000
   01/08/2020 21:15:00      0.000     0.000     0.000     0.000
   01/08/2020 21:30:00      0.000     0.000     0.000     0.000
   01/08/2020 21:45:00      0.000     0.000     0.000     0.000
   01/08/2020 22:00:00      0.000     0.000     0.000     0.000
   01/08/2020 22:15:00      0.000     0.000     0.000     0.000
   01/08/2020 22:30:00      0.000     0.000     0.000     0.000
   01/08/2020 22:45:00      0.000     0.000     0.000     0.000
   01/08/2020 23:00:00      0.000     0.000     0.000     0.000
   01/08/2020 23:15:00      0.000     0.000     0.000     0.000
   01/08/2020 23:30:00      0.000     0.000     0.000     0.000
   01/08/2020 23:45:00      0.000     0.000     0.000     0.000
   01/09/2020 00:00:00      0.000     0.000     0.000     0.000
  
  
  <<< Link 143 >>>
  ----------------------------------------------------------------
                             Flow  Velocity     Depth  Capacity/
  Date        Time            CFS    ft/sec      feet   Setting 
  ----------------------------------------------------------------
   01/08/2020 14:00:00      0.000     0.000     0.000     0.000
   01/08/2020 14:15:00      0.000     0.000     0.000     0.000
   01/08/2020 14:30:00      0.000     0.000     0.000     0.000
   01/08/2020 14:45:00      0.000     0.000     0.000     0.000
   01/08/2020 15:00:00      0.000     0.000     0.000     0.000
   01/08/2020 15:15:00      0.000     0.000     0.000     0.000
   01/08/2020 15:30:00      0.000     0.000     0.000     0.000
   01/08/2020 15:45:00      0.000     0.000     0.000     0.000
   01/08/2020 16:00:00      0.000     0.000     0.000     0.000
   01/08/2020 16:15:00      0.000     0.000     0.000     0.000
   01/08/2020 16:30:00      0.000     0.000     0.000     0.000
   01/08/2020 16:45:00      0.000     0.000     0.000     0.000
   01/08/2020 17:00:00      0.000     0.000     0.000     0.000
   01/08/2020 17:15:00      0.000     0.000     0.000     0.000
   01/08/2020 17:30:00      0.000     0.000     0.000     0.000
   01/08/2020 17:45:00      0.000     0.000     0.000     0.000
   01/08/2020 18:00:00      0.000     0.000     0.000     0.000
   01/08/2020 18:15:00      0.000     0.000     0.000     0.000
   01/08/2020 18:30:00      0.000     0.000     0.000     0.000
   01/08/2020 18:45:00      0.000     0.000     0.000     0.000
   01/08/2020 19:00:00      0.000     0.000     0.000     0.000
   01/08/2020 19:15:00      0.000     0.000     0.000     0.000
   01/08/2020 19:30:00      0.000     0.000     0.000     0.000
   01/08/2020 19:45:00      0.000     0.000     0.000     0.000
   01/08/2020 20:00:00      0.000     0.000     0.000     0.000
   01/08/2020 20:15:00      0.000     0.000     0.000     0.000
   01/08/2020 20:30:00      0.000     0.000     0.000     0.000
   01/08/2020 20:45:00      0.000     0.000     0.000     0.000
   01/08/2020 21:00:00      0.000     0.000     0.000     0.000
   01/08/2020 21:15:00      0.000     0.000     0.000     0.000
   01/08/2020 21:30:00      0.000     0.000     0.000     0.000
   01/08/2020 21:45:00      0.000     0.000     0.000     0.000
   01/08/2020 22:00:00      0.000     0.000     0.000     0.000
   01/08/2020 22:15:00      0.000     0.000     0.000     0.000
   01/08/2020 22:30:00      0.000     0.000     0.000     0.000
   01/08/2020 22:45:00      0.000     0.000     0.000     0.000
   01/08/2020 23:00:00      0.000     0.000     0.000     0.000
   01/08/2020 23:15:00      0.000     0.000     0.000     0.000
   01/08/2020 23:30:00      0.000     0.000     0.000     0.000
   01/08/2020 23:45:00      0.000     0.000     0.000     0.000
   01/09/2020 00:00:00      0.000     0.000     0.000     0.000
  
  
  <<< Link 145 >>>
  ----------------------------------------------------------------
                             Flow  Velocity     Depth  Capacity/
  Date        Time            CFS    ft/sec      feet   Setting 
  ----------------------------------------------------------------
   01/08/2020 14:00:00     -0.000    -0.000     0.000     0.000
   01/08/2020 14:15:00     -0.000    -0.000     0.000     0.000
   01/08/2020 14:30:00     -0.000    -0.000     0.000     0.000
   01/08/2020 14:45:00     -0.000    -0.000     0.000     0.000
   01/08/2020 15:00:00     -0.000    -0.000     0.000     0.000
   01/08/2020 15:15:00     -0.000    -0.000     0.000     0.000
   01/08/2020 15:30:00     -0.000    -0.000     0.000     0.000
   01/08/2020 15:45:00     -0.000    -0.000     0.000     0.000
   01/08/2020 16:00:00     -0.000    -0.000     0.000     0.000
   01/08/2020 16:15:00     -0.000    -0.000     0.000     0.000
   01/08/2020 16:30:00     -0.000    -0.000     0.000     0.000
   01/08/2020 16:45:00     -0.000    -0.000     0.000     0.000
   01/08/2020 17:00:00     -0.000    -0.000     0.000     0.000
   01/08/2020 17:15:00     -0.000    -0.000     0.000     0.000
   01/08/2020 17:30:00     -0.000    -0.000     0.000     0.000
   01/08/2020 17:45:00     -0.000    -0.000     0.000     0.000
   01/08/2020 18:00:00     -0.000    -0.000     0.000     0.000
   01/08/2020 18:15:00     -0.000    -0.000     0.000     0.000
   01/08/2020 18:30:00     -0.000    -0.000     0.000     0.000
   01/08/2020 18:45:00     -0.000    -0.000     0.000     0.000
   01/08/2020 19:00:00     -0.000    -0.000     0.000     0.000
   01/08/2020 19:15:00     -0.000    -0.000     0.000     0.000
   01/08/2020 19:30:00     -0.000    -0.000     0.000     0.000
   01/08/2020 19:45:00     -0.000    -0.000     0.000     0.000
   01/08/2020 20:00:00     -0.000    -0.000     0.000     0.000
   01/08/2020 20:15:00     -0.000    -0.000     0.000     0.000
   01/08/2020 20:30:00     -0.000    -0.000     0.000     0.000
   01/08/2020 20:45:00     -0.000    -0.000     0.000     0.000
   01/08/2020 21:00:00     -0.000    -0.000     0.000     0.000
   01/08/2020 21:15:00     -0.000    -0.000     0.000     0.000
   01/08/2020 21:30:00     -0.000    -0.000     0.000     0.000
   01/08/2020 21:45:00     -0.000    -0.000     0.000     0.000
   01/08/2020 22:00:00     -0.000    -0.000     0.000     0.000
   01/08/2020 22:15:00     -0.000    -0.000     0.000     0.000
   01/08/2020 22:30:00     -0.000    -0.000     0.000     0.000
   01/08/2020 22:45:00     -0.000    -0.000     0.000     0.000
   01/08/2020 23:00:00     -0.000    -0.000     0.000     0.000
   01/08/2020 23:15:00     -0.000    -0.000     0.000     0.000
   01/08/2020 23:30:00     -0.000    -0.000     0.000     0.000
   01/08/2020 23:45:00     -0.000    -0.000     0.000     0.000
   01/09/2020 00:00:00     -0.000    -0.000     0.000     0.000
  
  
  <<< Link 146 >>>
  ----------------------------------------------------------------
                             Flow  Velocity     Depth  Capacity/
  Date        Time            CFS    ft/sec      feet   Setting 
  ----------------------------------------------------------------
   01/08/2020 14:00:00     -0.000    -0.000     0.000     0.000
   01/08/2020 14:15:00     -0.000    -0.000     0.000     0.000
   01/08/2020 14:30:00     -0.000    -0.000     0.000     0.000
   01/08/2020 14:45:00     -0.000    -0.000     0.000     0.000
   01/08/2020 15:00:00     -0.000    -0.000     0.000     0.000
   01/08/2020 15:15:00     -0.000    -0.000     0.000     0.000
   01/08/2020 15:30:00     -0.000    -0.000     0.000     0.000
   01/08/2020 15:45:00     -0.000    -0.000     0.000     0.000
   01/08/2020 16:00:00     -0.000    -0.000     0.000     0.000
   01/08/2020 16:15:00     -0.000    -0.000     0.000     0.000
   01/08/2020 16:30:00     -0.000    -0.000     0.000     0.000
   01/08/2020 16:45:00     -0.000    -0.000     0.000     0.000
   01/08/2020 17:00:00     -0.000    -0.000     0.000     0.000
   01/08/2020 17:15:00     -0.000    -0.000     0.000     0.000
   01/08/2020 17:30:00     -0.000    -0.000     0.000     0.000
   01/08/2020 17:45:00     -0.000    -0.000     0.000     0.000
   01/08/2020 18:00:00     -0.000    -0.000     0.000     0.000
   01/08/2020 18:15:00     -0.000    -0.000     0.000     0.000
   01/08/2020 18:30:00     -0.000    -0.000     0.000     0.000
   01/08/2020 18:45:00     -0.000    -0.000     0.000     0.000
   01/08/2020 19:00:00     -0.000    -0.000     0.000     0.000
   01/08/2020 19:15:00     -0.000    -0.000     0.000     0.000
   01/08/2020 19:30:00     -0.000    -0.000     0.000     0.000
   01/08/2020 19:45:00     -0.000    -0.000     0.000     0.000
   01/08/2020 20:00:00     -0.000    -0.000     0.000     0.000
   01/08/2020 20:15:00     -0.000    -0.000     0.000     0.000
   01/08/2020 20:30:00     -0.000    -0.000     0.000     0.000
   01/08/2020 20:45:00     -0.000    -0.000     0.000     0.000
   01/08/2020 21:00:00     -0.000    -0.000     0.000     0.000
   01/08/2020 21:15:00     -0.000    -0.000     0.000     0.000
   01/08/2020 21:30:00     -0.000    -0.000     0.000     0.000
   01/08/2020 21:45:00     -0.000    -0.000     0.000     0.000
   01/08/2020 22:00:00     -0.000    -0.000     0.000     0.000
   01/08/2020 22:15:00     -0.000    -0.000     0.000     0.000
   01/08/2020 22:30:00     -0.000    -0.000     0.000     0.000
   01/08/2020 22:45:00     -0.000    -0.000     0.000     0.000
   01/08/2020 23:00:00     -0.000    -0.000     0.000     0.000
   01/08/2020 23:15:00     -0.000    -0.000     0.000     0.000
   01/08/2020 23:30:00     -0.000    -0.000     0.000     0.000
   01/08/2020 23:45:00     -0.000    -0.000     0.000     0.000
   01/09/2020 00:00:00     -0.000    -0.000     0.000     0.000
  
  
  <<< Link 147 >>>
  ----------------------------------------------------------------
                             Flow  Velocity     Depth  Capacity/
  Date        Time            CFS    ft/sec      feet   Setting 
  ----------------------------------------------------------------
   01/08/2020 14:00:00      0.000     0.000     0.000     0.000
   01/08/2020 14:15:00      0.000     0.000     0.000     0.000
   01/08/2020 14:30:00      0.000     0.000     0.000     0.000
   01/08/2020 14:45:00      0.000     0.000     0.000     0.000
   01/08/2020 15:00:00      0.000     0.000     0.000     0.000
   01/08/2020 15:15:00      0.000     0.000     0.000     0.000
   01/08/2020 15:30:00      0.000     0.000     0.000     0.000
   01/08/2020 15:45:00      0.000     0.000     0.000     0.000
   01/08/2020 16:00:00      0.000     0.000     0.000     0.000
   01/08/2020 16:15:00      0.000     0.000     0.000     0.000
   01/08/2020 16:30:00      0.000     0.000     0.000     0.000
   01/08/2020 16:45:00      0.000     0.000     0.000     0.000
   01/08/2020 17:00:00      0.000     0.000     0.000     0.000
   01/08/2020 17:15:00      0.000     0.000     0.000     0.000
   01/08/2020 17:30:00      0.000     0.000     0.000     0.000
   01/08/2020 17:45:00      0.000     0.000     0.000     0.000
   01/08/2020 18:00:00      0.000     0.000     0.000     0.000
   01/08/2020 18:15:00      0.000     0.000     0.000     0.000
   01/08/2020 18:30:00      0.000     0.000     0.000     0.000
   01/08/2020 18:45:00      0.000     0.000     0.000     0.000
   01/08/2020 19:00:00      0.000     0.000     0.000     0.000
   01/08/2020 19:15:00      0.000     0.000     0.000     0.000
   01/08/2020 19:30:00      0.000     0.000     0.000     0.000
   01/08/2020 19:45:00      0.000     0.000     0.000     0.000
   01/08/2020 20:00:00      0.000     0.000     0.000     0.000
   01/08/2020 20:15:00      0.000     0.000     0.000     0.000
   01/08/2020 20:30:00      0.000     0.000     0.000     0.000
   01/08/2020 20:45:00      0.000     0.000     0.000     0.000
   01/08/2020 21:00:00      0.000     0.000     0.000     0.000
   01/08/2020 21:15:00      0.000     0.000     0.000     0.000
   01/08/2020 21:30:00      0.000     0.000     0.000     0.000
   01/08/2020 21:45:00      0.000     0.000     0.000     0.000
   01/08/2020 22:00:00      0.000     0.000     0.000     0.000
   01/08/2020 22:15:00      0.000     0.000     0.000     0.000
   01/08/2020 22:30:00      0.000     0.000     0.000     0.000
   01/08/2020 22:45:00      0.000     0.000     0.000     0.000
   01/08/2020 23:00:00      0.000     0.000     0.000     0.000
   01/08/2020 23:15:00      0.000     0.000     0.000     0.000
   01/08/2020 23:30:00      0.000     0.000     0.000     0.000
   01/08/2020 23:45:00      0.000     0.000     0.000     0.000
   01/09/2020 00:00:00      0.000     0.000     0.000     0.000
  
  
  <<< Link 148 >>>
  ----------------------------------------------------------------
                             Flow  Velocity     Depth  Capacity/
  Date        Time            CFS    ft/sec      feet   Setting 
  ----------------------------------------------------------------
   01/08/2020 14:00:00      0.000     0.000     0.000     0.000
   01/08/2020 14:15:00      0.000     0.000     0.000     0.000
   01/08/2020 14:30:00      0.000     0.000     0.000     0.000
   01/08/2020 14:45:00      0.000     0.000     0.000     0.000
   01/08/2020 15:00:00      0.000     0.000     0.000     0.000
   01/08/2020 15:15:00      0.000     0.000     0.000     0.000
   01/08/2020 15:30:00      0.000     0.000     0.000     0.000
   01/08/2020 15:45:00      0.000     0.000     0.000     0.000
   01/08/2020 16:00:00      0.000     0.000     0.000     0.000
   01/08/2020 16:15:00      0.000     0.000     0.000     0.000
   01/08/2020 16:30:00      0.000     0.000     0.000     0.000
   01/08/2020 16:45:00      0.000     0.000     0.000     0.000
   01/08/2020 17:00:00      0.000     0.000     0.000     0.000
   01/08/2020 17:15:00      0.000     0.000     0.000     0.000
   01/08/2020 17:30:00      0.000     0.000     0.000     0.000
   01/08/2020 17:45:00      0.000     0.000     0.000     0.000
   01/08/2020 18:00:00      0.000     0.000     0.000     0.000
   01/08/2020 18:15:00      0.000     0.000     0.000     0.000
   01/08/2020 18:30:00      0.000     0.000     0.000     0.000
   01/08/2020 18:45:00      0.000     0.000     0.000     0.000
   01/08/2020 19:00:00      0.000     0.000     0.000     0.000
   01/08/2020 19:15:00      0.000     0.000     0.000     0.000
   01/08/2020 19:30:00      0.000     0.000     0.000     0.000
   01/08/2020 19:45:00      0.000     0.000     0.000     0.000
   01/08/2020 20:00:00      0.000     0.000     0.000     0.000
   01/08/2020 20:15:00      0.000     0.000     0.000     0.000
   01/08/2020 20:30:00      0.000     0.000     0.000     0.000
   01/08/2020 20:45:00      0.000     0.000     0.000     0.000
   01/08/2020 21:00:00      0.000     0.000     0.000     0.000
   01/08/2020 21:15:00      0.000     0.000     0.000     0.000
   01/08/2020 21:30:00      0.000     0.000     0.000     0.000
   01/08/2020 21:45:00      0.000     0.000     0.000     0.000
   01/08/2020 22:00:00      0.000     0.000     0.000     0.000
   01/08/2020 22:15:00      0.000     0.000     0.000     0.000
   01/08/2020 22:30:00      0.000     0.000     0.000     0.000
   01/08/2020 22:45:00      0.000     0.000     0.000     0.000
   01/08/2020 23:00:00      0.000     0.000     0.000     0.000
   01/08/2020 23:15:00      0.000     0.000     0.000     0.000
   01/08/2020 23:30:00      0.000     0.000     0.000     0.000
   01/08/2020 23:45:00      0.000     0.000     0.000     0.000
   01/09/2020 00:00:00      0.000     0.000     0.000     0.000
  
  
  <<< Link 149 >>>
  ----------------------------------------------------------------
                             Flow  Velocity     Depth  Capacity/
  Date        Time            CFS    ft/sec      feet   Setting 
  ----------------------------------------------------------------
   01/08/2020 14:00:00     -0.000    -0.000     0.000     0.000
   01/08/2020 14:15:00     -0.000    -0.000     0.000     0.000
   01/08/2020 14:30:00     -0.000    -0.000     0.000     0.000
   01/08/2020 14:45:00     -0.000    -0.000     0.000     0.000
   01/08/2020 15:00:00     -0.000    -0.000     0.000     0.000
   01/08/2020 15:15:00     -0.000    -0.000     0.000     0.000
   01/08/2020 15:30:00     -0.000    -0.000     0.000     0.000
   01/08/2020 15:45:00     -0.000    -0.000     0.000     0.000
   01/08/2020 16:00:00     -0.000    -0.000     0.000     0.000
   01/08/2020 16:15:00     -0.000    -0.000     0.000     0.000
   01/08/2020 16:30:00     -0.000    -0.000     0.000     0.000
   01/08/2020 16:45:00     -0.000    -0.000     0.000     0.000
   01/08/2020 17:00:00     -0.000    -0.000     0.000     0.000
   01/08/2020 17:15:00     -0.000    -0.000     0.000     0.000
   01/08/2020 17:30:00     -0.000    -0.000     0.000     0.000
   01/08/2020 17:45:00     -0.000    -0.000     0.000     0.000
   01/08/2020 18:00:00     -0.000    -0.000     0.000     0.000
   01/08/2020 18:15:00     -0.000    -0.000     0.000     0.000
   01/08/2020 18:30:00     -0.000    -0.000     0.000     0.000
   01/08/2020 18:45:00     -0.000    -0.000     0.000     0.000
   01/08/2020 19:00:00     -0.000    -0.000     0.000     0.000
   01/08/2020 19:15:00     -0.000    -0.000     0.000     0.000
   01/08/2020 19:30:00     -0.000    -0.000     0.000     0.000
   01/08/2020 19:45:00     -0.000    -0.000     0.000     0.000
   01/08/2020 20:00:00     -0.000    -0.000     0.000     0.000
   01/08/2020 20:15:00     -0.000    -0.000     0.000     0.000
   01/08/2020 20:30:00     -0.000    -0.000     0.000     0.000
   01/08/2020 20:45:00     -0.000    -0.000     0.000     0.000
   01/08/2020 21:00:00     -0.000    -0.000     0.000     0.000
   01/08/2020 21:15:00     -0.000    -0.000     0.000     0.000
   01/08/2020 21:30:00     -0.000    -0.000     0.000     0.000
   01/08/2020 21:45:00     -0.000    -0.000     0.000     0.000
   01/08/2020 22:00:00     -0.000    -0.000     0.000     0.000
   01/08/2020 22:15:00     -0.000    -0.000     0.000     0.000
   01/08/2020 22:30:00     -0.000    -0.000     0.000     0.000
   01/08/2020 22:45:00     -0.000    -0.000     0.000     0.000
   01/08/2020 23:00:00     -0.000    -0.000     0.000     0.000
   01/08/2020 23:15:00     -0.000    -0.000     0.000     0.000
   01/08/2020 23:30:00     -0.000    -0.000     0.000     0.000
   01/08/2020 23:45:00     -0.000    -0.000     0.000     0.000
   01/09/2020 00:00:00     -0.000    -0.000     0.000     0.000
  

  Analysis begun on:  Wed Dec 29 11:35:07 2021
  Analysis ended on:  Wed Dec 29 11:35:10 2021
  Total elapsed time: 00:00:03