
  EPA STORM WATER MANAGEMENT MODEL - VERSION 5.1 (Build 5.1.015)
  --------------------------------------------------------------

  WARNING 04: minimum elevation drop used for Conduit 28
  WARNING 04: minimum elevation drop used for Conduit 39
  WARNING 04: minimum elevation drop used for Conduit 43
  WARNING 04: minimum elevation drop used for Conduit 48
  WARNING 04: minimum elevation drop used for Conduit 76
  WARNING 04: minimum elevation drop used for Conduit 78
  WARNING 04: minimum elevation drop used for Conduit 80
  WARNING 04: minimum elevation drop used for Conduit 85
  WARNING 08: elevation drop exceeds length for Conduit 92
  WARNING 04: minimum elevation drop used for Conduit 147
  WARNING 02: maximum depth increased for Node 1
  WARNING 02: maximum depth increased for Node 2
  WARNING 02: maximum depth increased for Node 70
  WARNING 02: maximum depth increased for Node 72
  WARNING 02: maximum depth increased for Node 91
  
  *********************************************************
  NOTE: The summary statistics displayed in this report are
  based on results found at every computational time step,  
  not just on results from each reporting time step.
  *********************************************************
  
  ****************
  Analysis Options
  ****************
  Flow Units ............... CFS
  Process Models:
    Rainfall/Runoff ........ NO
    RDII ................... NO
    Snowmelt ............... NO
    Groundwater ............ NO
    Flow Routing ........... YES
    Ponding Allowed ........ YES
    Water Quality .......... NO
  Flow Routing Method ...... DYNWAVE
  Surcharge Method ......... EXTRAN
  Starting Date ............ 01/01/2020 00:00:00
  Ending Date .............. 01/09/2020 00:00:00
  Antecedent Dry Days ...... 0.0
  Report Time Step ......... 00:15:00
  Routing Time Step ........ 30.00 sec
  Variable Time Step ....... YES
  Maximum Trials ........... 10
  Number of Threads ........ 1
  Head Tolerance ........... 0.005000 ft
  
  
  **************************        Volume        Volume
  Flow Routing Continuity        acre-feet      10^6 gal
  **************************     ---------     ---------
  Dry Weather Inflow .......         0.000         0.000
  Wet Weather Inflow .......         0.000         0.000
  Groundwater Inflow .......         0.000         0.000
  RDII Inflow ..............         0.000         0.000
  External Inflow ..........    233868.321     76209.486
  External Outflow .........     18031.970      5875.987
  Flooding Loss ............    214681.627     69957.215
  Evaporation Loss .........         0.000         0.000
  Exfiltration Loss ........         0.000         0.000
  Initial Stored Volume ....        -0.306        -0.100
  Final Stored Volume ......      1049.222       341.905
  Continuity Error (%) .....         0.045
  
  
  *************************
  Highest Continuity Errors
  *************************
  Node 3 (37.29%)
  Node 59 (27.87%)
  Node 148 (9.27%)
  Node 58 (6.71%)
  Node 66 (6.45%)
  
  
  ***************************
  Time-Step Critical Elements
  ***************************
  Link 123 (1091.94%)
  Link 88 (129.16%)
  Link 15 (42.77%)
  Link 8 (28.63%)
  Link 103 (16.63%)
  
  
  ********************************
  Highest Flow Instability Indexes
  ********************************
  Link 20 (124)
  Link 19 (123)
  Link 85 (122)
  Link 21 (115)
  Link 56 (109)
  
  
  *************************
  Routing Time Step Summary
  *************************
  Minimum Time Step           :     0.09 sec
  Average Time Step           :     2.47 sec
  Maximum Time Step           :    30.00 sec
  Percent in Steady State     :    94.79
  Average Iterations per Step :     9.14
  Percent Not Converging      :   179.21
  Time Step Frequencies       :
     30.000 -  3.817 sec      :     6.32 %
      3.817 -  0.486 sec      :    93.59 %
      0.486 -  0.062 sec      :     0.09 %
      0.062 -  0.008 sec      :     0.00 %
      0.008 -  0.001 sec      :     0.00 %
  
  
  ******************
  Node Depth Summary
  ******************
  
  ---------------------------------------------------------------------------------
                                 Average  Maximum  Maximum  Time of Max    Reported
                                   Depth    Depth      HGL   Occurrence   Max Depth
  Node                 Type         Feet     Feet     Feet  days hr:min        Feet
  ---------------------------------------------------------------------------------
  1                    JUNCTION     0.00     0.00    10.01     7  14:00        0.00
  2                    JUNCTION     0.00     0.00     8.99     7  14:00        0.00
  3                    JUNCTION    11.81    11.81     8.59     7  14:18       11.81
  4                    JUNCTION    10.15    10.15     8.59     7  20:25       10.15
  5                    JUNCTION     0.00     0.00     8.59     7  15:55        0.00
  6                    JUNCTION     4.59     4.67     6.34     7  14:05        4.67
  7                    JUNCTION     8.52     8.60     6.34     7  14:06        8.59
  8                    JUNCTION    54.25    54.48     6.49     7  16:55       54.32
  9                    JUNCTION    54.22    54.46     6.50     7  16:55       54.31
  10                   JUNCTION    82.13    82.36     6.49     7  18:19       82.21
  11                   JUNCTION    92.07    92.43     6.62     7  18:19       92.16
  12                   JUNCTION    24.69    25.08     6.65     7  18:19       24.77
  13                   JUNCTION    18.06    18.45     6.65     7  18:19       18.13
  14                   JUNCTION    17.95    18.33     6.64     7  18:19       18.03
  15                   JUNCTION    30.74    31.09     6.61     7  18:19       30.83
  16                   JUNCTION    14.18    14.49     6.57     7  18:19       14.26
  19                   JUNCTION    25.69    26.03     7.23     7  21:28       25.71
  20                   JUNCTION    30.69    30.96     7.16     7  21:28       30.74
  21                   JUNCTION    27.89    28.14     7.14     7  21:28       27.95
  22                   JUNCTION    19.39    19.56     7.06     7  21:28       19.40
  23                   JUNCTION    12.09    12.12     6.92     7  22:05       12.10
  24                   JUNCTION     0.39     0.41     6.91     7  22:23        0.39
  25                   JUNCTION     0.20     0.20     6.50     7  22:25        0.20
  26                   JUNCTION    17.86    17.94     6.34     7  14:05       17.94
  27                   JUNCTION    18.16    18.26     6.36     7  14:02       18.23
  28                   JUNCTION    14.26    14.35     6.35     7  14:03       14.35
  29                   JUNCTION    14.26    14.35     6.35     7  14:01       14.34
  30                   JUNCTION    27.96    28.05     6.35     7  14:00       28.04
  31                   JUNCTION    28.06    28.15     6.35     7  14:01       28.14
  32                   JUNCTION    53.86    53.99     6.39     7  14:09       53.94
  33                   JUNCTION    50.76    50.94     6.44     7  17:03       50.86
  34                   JUNCTION    17.96    18.05     6.35     7  14:01       18.04
  35                   JUNCTION     0.00     0.00    21.17     0  00:00        0.00
  36                   JUNCTION     1.59     1.63     6.93     7  22:36        1.60
  37                   JUNCTION     1.49     1.52     6.92     7  21:05        1.49
  38                   JUNCTION    19.89    19.92     6.92     7  22:08       19.90
  39                   JUNCTION    20.19    20.25     6.95     7  22:08       20.21
  40                   JUNCTION    41.09    41.29     7.09     7  14:17       41.13
  41                   JUNCTION    41.09    41.30     7.10     7  14:17       41.11
  42                   JUNCTION    68.39    68.58     7.08     7  14:17       68.43
  43                   JUNCTION    71.79    71.92     7.02     7  21:46       71.83
  44                   JUNCTION    33.09    33.15     6.95     7  22:14       33.14
  45                   JUNCTION    33.09    33.16     6.96     7  21:27       33.15
  46                   JUNCTION    23.29    23.48     7.08     7  20:24       23.35
  47                   JUNCTION    23.39    23.56     7.06     7  17:28       23.48
  48                   JUNCTION    34.69    34.87     7.07     7  17:28       34.76
  49                   JUNCTION    21.19    21.37     7.07     7  17:28       21.27
  50                   JUNCTION    21.19    21.37     7.07     7  17:28       21.27
  51                   JUNCTION    17.39    17.51     7.01     7  21:28       17.46
  52                   JUNCTION     3.89     3.97     6.97     7  22:59        3.97
  53                   JUNCTION    27.20    28.47     6.37     7  20:29       27.57
  54                   JUNCTION     6.00     6.34     5.44     7  20:31        6.18
  55                   JUNCTION     5.10     5.44     5.44     7  20:32        5.29
  56                   JUNCTION    18.80    19.45     5.75     7  22:08       19.06
  57                   JUNCTION    18.30    18.96     5.76     7  22:08       18.56
  58                   JUNCTION    25.60    27.52     7.02     7  22:08       25.91
  59                   JUNCTION    25.70    27.70     7.10     7  22:08       25.91
  60                   JUNCTION     0.00     0.00     7.19     7  14:00        0.00
  61                   JUNCTION     0.00     0.00    12.80     0  00:00        0.00
  62                   JUNCTION     0.00     0.00    15.00     0  00:00        0.00
  63                   JUNCTION     0.00     0.00    22.00     0  00:00        0.00
  64                   JUNCTION     0.00     0.00    18.00     0  00:00        0.00
  65                   JUNCTION     0.00     0.00    11.00     0  00:00        0.00
  66                   JUNCTION     9.26     9.35     6.35     7  14:02        9.34
  67                   JUNCTION    11.96    12.05     6.35     7  14:03       12.04
  70                   JUNCTION    32.26    32.35     6.35     7  14:05       32.35
  71                   JUNCTION    17.45    17.54     6.35     7  14:05       17.54
  72                   JUNCTION    21.40    23.30     7.00     7  20:28       21.67
  73                   JUNCTION    22.10    25.79     8.79     7  20:28       22.84
  74                   JUNCTION    10.10    11.19     6.19     7  17:27       10.30
  75                   JUNCTION    17.00    17.85     5.95     7  20:29       17.45
  76                   JUNCTION     8.10     8.76     5.76     7  20:30        8.57
  77                   JUNCTION    11.35    12.07     5.82     7  20:30       11.85
  78                   JUNCTION    24.81    25.29     5.59     7  18:19       25.16
  79                   JUNCTION    24.79    25.29     5.59     7  18:19       25.16
  80                   JUNCTION    17.70    18.23     5.63     7  14:05       18.14
  81                   JUNCTION    17.70    18.24     5.64     7  14:05       18.14
  82                   JUNCTION    10.10    10.69     5.69     7  14:05       10.55
  83                   JUNCTION    22.99    23.22     7.12     7  14:17       23.02
  84                   JUNCTION    22.99    23.21     7.11     7  14:17       23.03
  85                   JUNCTION    50.59    50.76     7.06     7  14:17       50.63
  86                   JUNCTION    58.19    58.31     7.01     7  17:16       58.23
  87                   JUNCTION    46.89    46.94     6.94     7  22:20       46.94
  88                   JUNCTION    43.89    43.95     6.95     7  22:29       43.92
  89                   JUNCTION    43.89    43.99     6.99     7  15:45       43.92
  90                   JUNCTION    29.89    29.99     6.99     7  23:59       29.95
  91                   JUNCTION    11.69    11.74     6.94     7  21:12       11.74
  92                   JUNCTION     7.69     7.75     6.95     7  20:15        7.74
  18                   JUNCTION    21.40    22.89     6.59     7  18:53       21.75
  100                  JUNCTION    33.72    34.81     6.19     7  18:53       34.03
  102                  JUNCTION    32.95    35.00     9.36     7  14:01       35.00
  103                  JUNCTION    29.69    35.00    12.62     7  15:07       31.47
  104                  JUNCTION    29.68    35.00    12.63     7  15:07       31.51
  105                  JUNCTION    27.75    33.00    12.56     7  15:07       29.66
  106                  JUNCTION    19.43    33.00    20.88     7  18:19       21.67
  107                  JUNCTION    22.20    34.23    19.34     7  20:28       23.58
  108                  JUNCTION    14.09    27.00    20.20     7  20:28       15.33
  109                  JUNCTION    28.16    41.00    20.12     7  16:35       29.48
  110                  JUNCTION    28.17    41.00    20.09     7  14:17       29.72
  111                  JUNCTION    28.21    41.00    20.02     7  15:06       34.51
  112                  JUNCTION    28.21    41.00    20.00     7  14:17       34.47
  113                  JUNCTION    88.02   101.00    20.20     7  22:08       94.06
  114                  JUNCTION    90.41   103.78    20.60     7  22:08       96.34
  115                  JUNCTION    78.98    92.00    20.25     7  16:06       84.82
  116                  JUNCTION    79.10    92.00    20.13     7  16:06       84.74
  117                  JUNCTION   105.75   114.86    16.36     7  18:53      109.50
  118                  JUNCTION    30.24    32.10     9.12     7  19:59       30.98
  119                  JUNCTION    27.42    28.81     8.66     7  18:55       27.95
  120                  JUNCTION    24.69    26.20     8.78     7  18:56       25.41
  121                  JUNCTION    10.46    12.03     8.84     7  18:56       11.35
  122                  JUNCTION    10.70    12.17     8.74     7  18:56       11.60
  123                  JUNCTION    17.90    19.33     8.69     7  15:15       19.04
  124                  JUNCTION    13.76    15.29     8.79     7  15:15       15.06
  125                  JUNCTION    14.46    15.98     8.78     7  15:16       15.88
  126                  JUNCTION    26.64    28.13     8.75     7  15:16       28.00
  127                  JUNCTION    18.47    19.91     8.70     7  15:16       19.81
  128                  JUNCTION    18.96    20.42     8.72     7  15:17       20.27
  129                  JUNCTION    21.58    23.04     8.72     7  15:17       22.89
  130                  JUNCTION    12.95    14.38     8.69     7  15:17       14.24
  131                  JUNCTION     0.00     0.00    31.65     0  00:00        0.00
  132                  JUNCTION     0.00     0.00    31.36     0  00:00        0.00
  133                  JUNCTION     0.00     0.00    40.24     0  00:00        0.00
  134                  JUNCTION     0.00     0.00    44.72     0  00:00        0.00
  135                  JUNCTION     0.00     0.00    44.62     0  00:00        0.00
  136                  JUNCTION     0.00     0.00    44.35     0  00:00        0.00
  137                  JUNCTION     0.00     0.00    34.51     0  00:00        0.00
  138                  JUNCTION     0.00     0.00    52.23     0  00:00        0.00
  139                  JUNCTION     0.00     0.00    49.93     0  00:00        0.00
  140                  JUNCTION     0.00     0.00    45.20     0  00:00        0.00
  141                  JUNCTION     0.00     0.00    49.13     0  00:00        0.00
  142                  JUNCTION     0.00     0.00    40.05     0  00:00        0.00
  143                  JUNCTION     0.00     0.00    39.90     0  00:00        0.00
  148                  JUNCTION    31.36    33.07     6.81     7  20:28       31.84
  68                   OUTFALL      0.00     0.01     6.51     7  20:28        0.00
  69                   OUTFALL      0.10     0.57     5.57     7  20:30        0.51
  93                   OUTFALL      0.00     0.00    13.89     0  00:00        0.00
  94                   OUTFALL      0.00     0.00    10.51     0  00:00        0.00
  95                   OUTFALL      0.08     0.08    12.78     8  00:00        0.08
  96                   OUTFALL      0.00     0.00    31.60     0  00:00        0.00
  97                   OUTFALL      0.00     0.00    17.55     0  00:00        0.00
  98                   OUTFALL      0.00     0.00    11.00     0  00:00        0.00
  99                   OUTFALL      0.16     0.46     6.56     7  14:17        0.25
  101                  OUTFALL      0.07     0.07    11.96     8  00:00        0.07
  144                  OUTFALL      0.00     0.00    32.22     0  00:00        0.00
  145                  OUTFALL      0.04     0.66     8.66     7  15:17        0.55
  146                  OUTFALL      0.00     0.00    39.90     0  00:00        0.00
  147                  OUTFALL      0.00     0.00    15.00     0  00:00        0.00
  
  
  *******************
  Node Inflow Summary
  *******************
  
  -------------------------------------------------------------------------------------------------
                                  Maximum  Maximum                  Lateral       Total        Flow
                                  Lateral    Total  Time of Max      Inflow      Inflow     Balance
                                   Inflow   Inflow   Occurrence      Volume      Volume       Error
  Node                 Type           CFS      CFS  days hr:min    10^6 gal    10^6 gal     Percent
  -------------------------------------------------------------------------------------------------
  1                    JUNCTION      0.00     0.00     0  00:00           0      0.0126       0.071
  2                    JUNCTION      0.00     0.00     0  00:00           0        2.76       0.039
  3                    JUNCTION      0.00     0.01     7  20:25           0        36.8      59.466
  4                    JUNCTION      0.00     0.01     7  20:25           0        42.2       3.030
  5                    JUNCTION      0.00     0.00     7  17:13           0        27.2       0.034
  6                    JUNCTION      0.00    36.00     7  18:48           0         518       0.161
  7                    JUNCTION      0.00    33.68     7  18:30           0         481       0.203
  8                    JUNCTION     36.22    36.22     7  20:00        0.79         659       0.763
  9                    JUNCTION      0.00    39.00     7  18:07           0         739       0.659
  10                   JUNCTION      0.00    30.08     7  17:28           0         911       0.540
  11                   JUNCTION      0.00    30.00     7  17:28           0    1.46e+03       0.363
  12                   JUNCTION      0.00    30.01     7  17:28           0    1.45e+03       0.198
  13                   JUNCTION      0.00    30.03     7  17:28           0    1.42e+03       0.134
  14                   JUNCTION      0.00    30.10     7  18:07           0    1.42e+03       0.240
  15                   JUNCTION      0.00    42.55     7  17:29           0    1.42e+03       0.277
  16                   JUNCTION      0.00    79.20     7  18:18           0    4.07e+04       0.002
  19                   JUNCTION      0.00     5.71     7  21:46           0    9.82e+03       0.040
  20                   JUNCTION      0.00    10.98     7  18:07           0         263       1.914
  21                   JUNCTION      0.00    11.11     7  23:21           0         266       1.298
  22                   JUNCTION      0.00    11.02     7  21:28           0         260       1.329
  23                   JUNCTION      0.00    10.92     7  20:19           0         275       0.581
  24                   JUNCTION      0.00    28.43     7  15:15           0         557      -0.009
  25                   JUNCTION      0.00     9.97     7  22:23           0         309       0.027
  26                   JUNCTION      0.00    42.52     7  18:29           0         660       0.681
  27                   JUNCTION      0.00    55.31     7  17:00           0         468       0.765
  28                   JUNCTION      0.00    63.12     7  17:00           0         467       0.630
  29                   JUNCTION      0.00    65.84     7  17:01           0         484       0.575
  30                   JUNCTION      0.00    45.34     7  22:17           0         478       1.577
  31                   JUNCTION      0.00    40.35     7  17:29           0    1.94e+03       0.325
  32                   JUNCTION      0.00    19.10     7  17:06           0    1.74e+03       0.163
  33                   JUNCTION      0.00    18.97     7  17:06           0    1.74e+03       0.163
  34                   JUNCTION      0.00    15.19     7  17:02           0    2.93e+03       0.097
  35                   JUNCTION      0.00     0.00     0  00:00           0           0       0.000 gal
  36                   JUNCTION      0.00    12.06     7  15:46           0        47.3       1.035
  37                   JUNCTION      0.00    16.82     7  21:02           0        91.1       0.418
  38                   JUNCTION      0.00    39.50     7  16:46           0         600       1.022
  39                   JUNCTION      0.00    54.66     7  14:56           0         567       0.559
  40                   JUNCTION      0.00    40.13     7  20:19           0         656       1.778
  41                   JUNCTION      0.00    27.27     7  16:54           0         226       1.358
  42                   JUNCTION      0.00    17.52     7  16:54           0         223       1.419
  43                   JUNCTION      0.00    15.35     7  16:54           0         241       0.998
  44                   JUNCTION      0.00    20.26     7  14:32           0         237       1.205
  45                   JUNCTION      0.00    19.56     7  14:38           0         232       1.942
  46                   JUNCTION      0.00    12.41     7  15:47           0         227       1.521
  47                   JUNCTION      0.00    13.51     7  23:47           0         211       0.907
  48                   JUNCTION      0.00    13.84     7  15:56           0         209       0.929
  49                   JUNCTION      0.00    14.66     7  22:00           0         207       1.424
  50                   JUNCTION      0.00    12.52     7  15:47           0         202       1.506
  51                   JUNCTION      0.00    15.14     7  15:47           0         879       0.253
  52                   JUNCTION      0.00    12.98     7  16:55           0    2.69e+03       0.014
  53                   JUNCTION      0.00   954.06     7  20:28           0         274       0.777
  54                   JUNCTION      0.00   199.39     7  20:29           0         274       0.477
  55                   JUNCTION      0.00   187.70     7  20:30           0         274       0.609
  56                   JUNCTION      0.00    98.29     7  14:02           0         298       2.537
  57                   JUNCTION      0.00    44.98     7  22:08           0        84.8       5.381
  58                   JUNCTION      0.00    29.45     7  22:08           0        60.7       7.194
  59                   JUNCTION      0.00    15.74     7  22:08           0        17.2      38.639
  60                   JUNCTION      0.00     0.00     0  00:00           0        4.15      -0.030
  61                   JUNCTION      0.00     0.00     0  00:00           0           0       0.000 gal
  62                   JUNCTION      0.00     0.00     0  00:00           0           0       0.000 gal
  63                   JUNCTION      0.00     0.00     0  00:00           0           0       0.000 gal
  64                   JUNCTION      0.00     0.00     0  00:00           0           0       0.000 gal
  65                   JUNCTION      0.00     0.00     0  00:00           0           0       0.000 gal
  66                   JUNCTION      0.00    19.24     7  22:44           0        36.7       6.892
  67                   JUNCTION      0.00    36.66     7  17:00           0         245       1.196
  70                   JUNCTION      0.00    21.43     7  16:02           0    1.84e+03       0.264
  71                   JUNCTION      0.00    18.62     7  17:10           0         170       1.550
  72                   JUNCTION      0.00  5085.01     7  20:28           0         298       1.300
  73                   JUNCTION      0.00  5003.05     7  17:27           0         297       1.194
  74                   JUNCTION      0.00   688.64     7  17:27           0        5.81      16.730
  75                   JUNCTION      0.00   931.70     7  20:29           0         260       0.765
  76                   JUNCTION      0.00   310.90     7  20:28           0         224       0.271
  77                   JUNCTION      0.00   419.57     7  20:28           0        30.7       2.728
  78                   JUNCTION      0.00    95.07     7  14:02           0         234       1.850
  79                   JUNCTION      0.00    95.23     7  14:02           0         755       0.398
  80                   JUNCTION      0.00    94.81     7  14:02           0         719       0.348
  81                   JUNCTION      0.00    89.28     7  14:02           0         870       0.241
  82                   JUNCTION      0.00    90.55     7  14:03           0    6.05e+03       0.021
  83                   JUNCTION      0.00    36.92     7  20:28           0         516       1.781
  84                   JUNCTION      0.00    28.17     7  20:27           0         520       0.760
  85                   JUNCTION      0.00    27.30     7  20:17           0         476       0.319
  86                   JUNCTION      0.00    27.49     7  15:03           0         478       0.310
  87                   JUNCTION      0.00    60.61     7  22:10           0         481       1.329
  88                   JUNCTION      0.00    47.28     7  22:14           0         519       1.033
  89                   JUNCTION      0.00    25.08     7  21:14           0    1.24e+03       0.236
  90                   JUNCTION      0.00    24.97     7  21:14           0    4.02e+03       0.079
  91                   JUNCTION      0.00    21.76     7  21:13           0    1.16e+04       0.006
  92                   JUNCTION      0.00    13.83     7  20:23           0    2.19e+03       0.035
  18                   JUNCTION      0.00   269.78     7  18:53           0         270       0.401
  100                  JUNCTION      0.00   199.03     7  20:29           0         272       0.754
  102                  JUNCTION      0.00  1674.76     7  20:29           0         718       0.780
  103                  JUNCTION      0.00  2642.85     7  22:13           0         735       1.608
  104                  JUNCTION      0.00  2546.44     7  22:13           0         802       0.772
  105                  JUNCTION      0.00  2569.62     7  22:13           0         511       1.434
  106                  JUNCTION      0.00  3986.17     7  22:11           0         545       1.438
  107                  JUNCTION      0.00  3555.05     7  22:10           0         580       1.178
  108                  JUNCTION      0.00  7697.29     7  18:53           0         624       0.772
  109                  JUNCTION      0.00 37280.98     7  17:27           0         680       1.474
  110                  JUNCTION      0.00 39530.52     7  20:28           0         708      -3.264
  111                  JUNCTION      0.00 44977.68     7  15:06           0         650      -0.575
  112                  JUNCTION      0.00 19217.49     7  14:17           0         525      -0.273
  113                  JUNCTION      0.00  2350.17     7  17:27           0         519       1.091
  114                  JUNCTION      0.00  1907.13     7  16:06           0         521       0.725
  115                  JUNCTION      0.00  1162.51     7  17:27           0         522       1.600
  116                  JUNCTION      0.00  1159.99     7  22:09           0         526       2.377
  117                  JUNCTION      0.00  1169.55     7  22:09           0         533       1.924
  118                  JUNCTION      0.00  1172.86     7  22:09           0         538       1.356
  119                  JUNCTION      0.00  1223.03     7  22:10           0         556       0.893
  120                  JUNCTION      0.00  1085.21     7  22:10           0         558       0.725
  121                  JUNCTION      0.00   928.07     7  22:10           0         543       0.125
  122                  JUNCTION      0.00   810.13     7  22:11           0         542       0.576
  123                  JUNCTION      0.00   518.57     7  15:12           0         539       1.043
  124                  JUNCTION      0.00   534.77     7  15:13           0         534       0.422
  125                  JUNCTION      0.00   453.51     7  15:12           0         525       1.110
  126                  JUNCTION      0.00   168.39     7  22:29           0     1.6e+03       0.457
  127                  JUNCTION      0.00   168.44     7  22:29           0    1.15e+03       0.263
  128                  JUNCTION      0.00   158.00     7  19:10           0    1.29e+03       0.149
  129                  JUNCTION      0.00   158.54     7  19:10           0    1.28e+03       0.074
  130                  JUNCTION      0.00   159.26     7  19:10           0    1.27e+03       0.066
  131                  JUNCTION      0.00     0.00     0  00:00           0           0       0.000 gal
  132                  JUNCTION      0.00     0.00     0  00:00           0           0       0.000 gal
  133                  JUNCTION      0.00     0.00     0  00:00           0           0       0.000 gal
  134                  JUNCTION      0.00     0.00     0  00:00           0           0       0.000 gal
  135                  JUNCTION      0.00     0.00     0  00:00           0           0       0.000 gal
  136                  JUNCTION      0.00     0.00     0  00:00           0           0       0.000 gal
  137                  JUNCTION      0.00     0.00     0  00:00           0           0       0.000 gal
  138                  JUNCTION      0.00     0.00     0  00:00           0           0       0.000 gal
  139                  JUNCTION      0.00     0.00     0  00:00           0           0       0.000 gal
  140                  JUNCTION      0.00     0.00     0  00:00           0           0       0.000 gal
  141                  JUNCTION      0.00     0.00     0  00:00           0           0       0.000 gal
  142                  JUNCTION      0.00     0.00     0  00:00           0           0       0.000 gal
  143                  JUNCTION      0.00     0.00     0  00:00           0           0       0.000 gal
  148                  JUNCTION      0.00   514.90     7  17:28           0        13.7      10.214
  68                   OUTFALL       0.00     0.44     7  20:28           0        26.8       0.000
  69                   OUTFALL       0.00   113.61     7  20:30           0         222       0.000
  93                   OUTFALL       0.00     0.00     0  00:00           0           0       0.000 gal
  94                   OUTFALL       0.00     0.00     0  00:00           0         471       0.000
  95                   OUTFALL       0.00     9.23     8  00:00           0    2.18e+03       0.000
  96                   OUTFALL       0.00     0.00     0  00:00           0           0       0.000 gal
  97                   OUTFALL       0.00     0.00     0  00:00           0           0       0.000 gal
  98                   OUTFALL       0.00     0.00     0  00:00           0         350       0.000
  99                   OUTFALL       0.00    80.93     7  14:17           0    1.26e+03       0.000
  101                  OUTFALL       0.00     4.19     8  00:00           0         761       0.000
  144                  OUTFALL       0.00     0.00     0  00:00           0           0       0.000 gal
  145                  OUTFALL       0.00   126.09     7  15:17           0         634       0.000
  146                  OUTFALL       0.00     0.00     0  00:00           0           0       0.000 gal
  147                  OUTFALL       0.00     0.00     0  00:00           0           0       0.000 gal
  
  
  **********************
  Node Surcharge Summary
  **********************
  
  Surcharging occurs when water rises above the top of the highest conduit.
  ---------------------------------------------------------------------
                                               Max. Height   Min. Depth
                                   Hours       Above Crown    Below Rim
  Node                 Type      Surcharged           Feet         Feet
  ---------------------------------------------------------------------
  8                    JUNCTION       10.00         28.479        5.521
  9                    JUNCTION       10.00         28.463        5.537
  10                   JUNCTION       10.00         62.865        2.635
  11                   JUNCTION       10.00         72.925        2.575
  12                   JUNCTION       10.00          5.579        4.921
  13                   JUNCTION       10.00          1.453        6.547
  14                   JUNCTION       10.00          1.328        6.672
  15                   JUNCTION       10.00         14.086        8.914
  19                   JUNCTION       10.00         10.733        3.967
  20                   JUNCTION       10.00         12.960        9.040
  21                   JUNCTION       10.00         10.143       11.857
  22                   JUNCTION       10.00          3.555       20.445
  32                   JUNCTION       10.00         37.889       26.011
  33                   JUNCTION       10.00         34.843       29.057
  39                   JUNCTION       10.00          0.948       19.752
  40                   JUNCTION       10.00         21.993       18.707
  41                   JUNCTION       10.00         24.302       18.698
  42                   JUNCTION       10.00         51.581       11.419
  43                   JUNCTION       10.00         54.924        8.076
  46                   JUNCTION       10.00          6.780       26.520
  47                   JUNCTION       10.00          6.859       26.441
  48                   JUNCTION       10.00         19.167       25.133
  49                   JUNCTION       10.00          5.170       28.630
  50                   JUNCTION       10.00          5.166       28.634
  51                   JUNCTION       10.00          1.313       12.487
  56                   JUNCTION       10.00          3.150       20.550
  57                   JUNCTION       10.00          3.213       21.037
  58                   JUNCTION       10.00          7.821       22.479
  59                   JUNCTION       10.00          7.996       22.304
  73                   JUNCTION        0.01          1.491        3.209
  78                   JUNCTION       10.00          5.794        4.706
  79                   JUNCTION       10.00          5.786        4.714
  80                   JUNCTION       10.00          1.329       11.771
  81                   JUNCTION       10.00          1.339       11.761
  83                   JUNCTION       10.00          8.224       11.776
  84                   JUNCTION       10.00          6.613       11.787
  85                   JUNCTION       10.00         34.156       19.244
  86                   JUNCTION       10.00         41.708       11.692
  89                   JUNCTION       10.00         27.391        6.009
  90                   JUNCTION       10.00         13.392       10.008
  18                   JUNCTION       10.00          6.290       12.110
  100                  JUNCTION       10.00         18.212       15.188
  102                  JUNCTION       10.00         15.330        0.000
  103                  JUNCTION        9.94          8.000        0.000
  104                  JUNCTION        9.95          8.000        0.000
  105                  JUNCTION       10.00         13.330        0.000
  106                  JUNCTION        2.44         13.330        0.000
  107                  JUNCTION        9.99         14.555        0.775
  108                  JUNCTION        0.01          7.330        0.000
  109                  JUNCTION        9.99         21.330        0.000
  110                  JUNCTION        0.04          5.000        0.000
  111                  JUNCTION        0.10          5.000        0.000
  112                  JUNCTION        9.97         21.000        0.000
  113                  JUNCTION       10.00         81.000        0.000
  114                  JUNCTION       10.00         83.779        1.221
  115                  JUNCTION       10.00         52.000        0.000
  116                  JUNCTION       10.00         52.000        0.000
  117                  JUNCTION       10.00         94.862        5.138
  118                  JUNCTION       10.00         12.097       12.903
  123                  JUNCTION        5.46          1.429       10.671
  126                  JUNCTION       10.00         10.228        6.872
  127                  JUNCTION        8.16          2.006        5.094
  128                  JUNCTION       10.00          5.421        1.579
  129                  JUNCTION       10.00          8.041        1.959
  148                  JUNCTION       10.00          8.774        6.926
  
  
  *********************
  Node Flooding Summary
  *********************
  
  Flooding refers to all water that overflows a node, whether it ponds or not.
  --------------------------------------------------------------------------
                                                             Total   Maximum
                                 Maximum   Time of Max       Flood    Ponded
                        Hours       Rate    Occurrence      Volume     Depth
  Node                 Flooded       CFS   days hr:min    10^6 gal      Feet
  --------------------------------------------------------------------------
  102                     0.56   1674.27      7  20:29       5.909     0.000
  103                     0.01   1500.14      7  22:13       0.123     0.000
  104                     0.02   1513.30      7  22:13       0.146     0.000
  105                     0.02    448.08      7  18:19       0.100     0.000
  106                     0.01   1446.23      7  18:19       0.042     0.000
  108                     0.01   6446.65      7  20:28       0.341     0.000
  109                     0.01  26818.89      7  17:27       2.035     0.000
  110                     0.03  33791.16      7  20:28       7.059     0.000
  111                     0.06  32970.50      7  15:06      17.825     0.000
  112                     0.01  16971.40      7  22:09       0.916     0.000
  113                     0.01    781.45      7  22:08       0.019     0.000
  115                     0.01    400.02      7  17:28       0.032     0.000
  116                     0.01    153.98      7  16:06       0.011     0.000
  
  
  ***********************
  Outfall Loading Summary
  ***********************
  
  -----------------------------------------------------------
                         Flow       Avg       Max       Total
                         Freq      Flow      Flow      Volume
  Outfall Node           Pcnt       CFS       CFS    10^6 gal
  -----------------------------------------------------------
  68                     0.01      0.44      0.44      26.771
  69                    99.06      7.95    113.61     222.170
  93                     0.00      0.00      0.00       0.000
  94                     0.00      0.00      0.00     470.686
  95                   100.00      9.14      9.23    2181.900
  96                     0.00      0.00      0.00       0.000
  97                     0.00      0.00      0.00       0.000
  98                     0.00      0.00      0.00     350.347
  99                    99.93     14.28     80.93    1258.085
  101                  100.00      4.15      4.19     760.684
  144                    0.00      0.00      0.00       0.000
  145                   20.89     24.04    126.09     634.183
  146                    0.00      0.00      0.00       0.000
  147                    0.00      0.00      0.00       0.000
  -----------------------------------------------------------
  System                29.99     60.01    156.63    5904.827
  
  
  ********************
  Link Flow Summary
  ********************
  
  -----------------------------------------------------------------------------
                                 Maximum  Time of Max   Maximum    Max/    Max/
                                  |Flow|   Occurrence   |Veloc|    Full    Full
  Link                 Type          CFS  days hr:min    ft/sec    Flow   Depth
  -----------------------------------------------------------------------------
  1                    CONDUIT      0.00     0  00:00      0.00    0.00    0.00
  2                    CONDUIT      0.00     0  00:00      0.00    0.00    0.37
  3                    CONDUIT      0.01     7  20:25      0.00    0.00    0.78
  4                    CONDUIT      0.00     7  17:13      0.00    0.00    0.32
  5                    CONDUIT      0.00     7  14:17      0.00    0.00    0.15
  6                    CONDUIT     33.68     7  18:30      0.15    0.00    0.41
  7                    CONDUIT     30.79     7  16:57      0.10    0.00    0.72
  8                    CONDUIT     39.00     7  18:07      0.05    0.02    1.00
  9                    CONDUIT     30.08     7  17:28      0.08    0.00    1.00
  10                   CONDUIT     30.00     7  17:28      0.08    0.00    1.00
  11                   CONDUIT     30.01     7  17:28      0.08    0.00    1.00
  12                   CONDUIT     30.03     7  17:28      0.06    0.00    1.00
  13                   CONDUIT     30.10     7  18:07      0.06    0.02    1.00
  14                   CONDUIT     42.55     7  17:29      0.09    0.00    1.00
  15                   CONDUIT     45.51     7  17:27      0.10    0.00    0.93
  19                   CONDUIT      5.71     7  21:46      0.01    0.00    1.00
  20                   CONDUIT     11.11     7  23:21      0.01    0.00    1.00
  21                   CONDUIT      9.41     7  15:56      0.02    0.00    1.00
  22                   CONDUIT     11.02     7  21:28      0.02    0.00    0.90
  23                   CONDUIT     10.57     7  15:05      0.08    0.00    0.33
  24                   CONDUIT      9.97     7  22:23      0.79    0.00    0.02
  25                   CONDUIT      9.61     7  22:25      0.04    0.00    0.30
  26                   CONDUIT     55.31     7  17:00      0.14    0.02    0.77
  27                   CONDUIT     63.12     7  17:00      0.09    0.01    0.86
  28                   CONDUIT     65.84     7  17:01      0.08    0.16    0.80
  29                   CONDUIT     26.13     7  22:18      0.06    0.00    0.94
  30                   CONDUIT     45.34     7  22:17      0.03    0.00    0.94
  31                   CONDUIT     18.93     7  17:06      0.04    0.00    1.00
  32                   CONDUIT     19.10     7  17:06      0.04    0.00    1.00
  33                   CONDUIT     18.97     7  17:06      0.04    0.00    1.00
  34                   CONDUIT      0.00     0  00:00      0.00    0.00    0.05
  35                   CONDUIT     12.89     7  15:07      0.14    0.00    0.06
  36                   CONDUIT     19.80     7  15:08      0.07    0.00    0.36
  37                   CONDUIT     54.66     7  14:56      0.06    0.01    1.00
  38                   CONDUIT     35.20     7  20:17      0.08    0.00    1.00
  39                   CONDUIT     27.27     7  16:54      0.03    0.08    1.00
  40                   CONDUIT     17.52     7  16:54      0.04    0.00    1.00
  41                   CONDUIT     15.35     7  16:54      0.07    0.01    1.00
  42                   CONDUIT     15.31     7  16:53      0.07    0.00    1.00
  43                   CONDUIT     20.26     7  14:32      0.04    0.12    0.98
  44                   CONDUIT     12.41     7  15:47      0.03    0.00    1.00
  45                   CONDUIT     12.41     7  15:47      0.03    0.02    1.00
  46                   CONDUIT     13.84     7  15:56      0.04    0.00    1.00
  47                   CONDUIT     12.92     7  15:56      0.04    0.00    1.00
  48                   CONDUIT     14.66     7  22:00      0.02    0.04    1.00
  49                   CONDUIT     12.52     7  15:47      0.03    0.00    1.00
  50                   CONDUIT     15.14     7  15:47      0.05    0.00    0.62
  51                   CONDUIT    199.39     7  20:29      0.65    0.01    0.69
  52                   CONDUIT    187.69     7  20:30      0.39    0.01    0.23
  53                   CONDUIT     98.29     7  14:02      0.37    0.02    0.67
  54                   CONDUIT     49.28     7  18:18      0.05    0.01    1.00
  55                   CONDUIT     35.25     7  18:18      0.10    0.01    1.00
  56                   CONDUIT     17.58     7  18:18      0.02    0.00    1.00
  57                   CONDUIT      0.00     7  14:00      0.00    0.00    0.50
  58                   CONDUIT      0.00     0  00:00      0.00    0.00    0.00
  59                   CONDUIT      0.00     0  00:00      0.00    0.00    0.00
  60                   CONDUIT      0.00     0  00:00      0.00    0.00    0.00
  61                   CONDUIT      0.00     0  00:00      0.00    0.00    0.00
  62                   CONDUIT      0.00     0  00:00      0.00    0.00    0.00
  63                   CONDUIT      0.00     0  00:00      0.00    0.00    0.30
  64                   CONDUIT     19.24     7  22:44      0.02    0.00    0.64
  65                   CONDUIT     21.27     7  17:09      0.05    0.00    0.85
  67                   CONDUIT     22.02     7  16:45      0.05    0.00    0.86
  68                   CONDUIT     18.62     7  17:10      0.02    0.00    1.00
  69                   CONDUIT    954.06     7  20:28      1.19    0.01    0.77
  70                   CONDUIT   4574.32     7  20:28      2.31    0.16    1.00
  71                   CONDUIT   1427.77     7  17:27      2.60    0.05    1.00
  72                   CONDUIT    647.27     7  20:29      1.81    0.08    1.00
  73                   CONDUIT    310.90     7  20:28      0.95    0.02    0.70
  74                   CONDUIT    419.57     7  20:28      1.02    0.03    0.88
  75                   CONDUIT     95.07     7  14:02      0.24    0.02    1.00
  76                   CONDUIT     95.23     7  14:02      0.10    0.24    1.00
  77                   CONDUIT     94.81     7  14:02      0.24    0.02    1.00
  78                   CONDUIT     89.28     7  14:02      0.11    0.29    1.00
  79                   CONDUIT     86.44     7  14:03      0.25    0.01    0.83
  80                   CONDUIT     36.92     7  20:28      0.02    0.07    1.00
  81                   CONDUIT     28.17     7  20:27      0.06    0.00    1.00
  82                   CONDUIT     27.30     7  20:17      0.05    0.00    1.00
  83                   CONDUIT     27.49     7  15:03      0.06    0.00    1.00
  84                   CONDUIT     60.61     7  22:10      0.03    0.00    0.91
  85                   CONDUIT     27.64     7  14:16      0.06    0.16    1.00
  86                   CONDUIT     25.08     7  21:14      0.05    0.00    1.00
  87                   CONDUIT     24.97     7  21:14      0.06    0.00    0.85
  88                   CONDUIT     21.76     7  21:13      0.15    0.00    0.24
  89                   CONDUIT      0.00     0  00:00      0.00    0.00    0.11
  90                   CONDUIT     28.43     7  15:15      0.07    0.00    0.51
  91                   CONDUIT     31.38     7  23:31      0.02    0.00    1.00
  92                   CONDUIT      0.00     0  00:00      0.00    0.00    0.50
  93                   CONDUIT     36.00     7  18:48      0.07    0.00    0.66
  94                   CONDUIT     36.66     7  17:00      0.20    0.01    1.00
  95                   CONDUIT      0.44     7  20:28      0.00    0.00    0.20
  96                   CONDUIT    113.61     7  20:30      0.82    0.00    0.15
  97                   CONDUIT      0.00     0  00:00      0.00    0.00    0.19
  98                   CONDUIT      4.19     8  00:00      0.03    0.00    0.18
  99                   CONDUIT      0.00     0  00:00      0.00    0.00    0.10
  100                  CONDUIT      9.23     8  00:00      0.06    0.00    0.13
  101                  CONDUIT      0.00     0  00:00      0.00    0.00    0.00
  102                  CONDUIT      0.00     0  00:00      0.00    0.00    0.29
  103                  CONDUIT     80.93     7  14:17      0.38    0.00    0.37
  104                  CONDUIT      0.00     0  00:00      0.00    0.00    0.36
  17                   CONDUIT    199.03     7  20:29      0.51    0.01    1.00
  18                   CONDUIT    269.78     7  18:53      0.69    0.03    1.00
  66                   CONDUIT   1674.76     7  20:29      1.75    0.14    1.00
  105                  CONDUIT   2642.85     7  22:13      1.53    1.15    1.00
  106                  CONDUIT   2546.44     7  22:13      2.66    0.14    1.00
  107                  CONDUIT   2569.62     7  22:13      2.73    0.14    1.00
  108                  CONDUIT   3555.05     7  22:10      3.99    0.21    1.00
  109                  CONDUIT   3587.66     7  22:10      4.76    0.16    1.00
  110                  CONDUIT   7697.29     7  18:53      8.84    0.21    1.00
  111                  CONDUIT  37280.98     7  17:27     38.94   10.52    1.00
  112                  CONDUIT  28758.69     7  15:06     17.44    3.28    1.00
  113                  CONDUIT  18859.30     7  14:17     30.02   10.15    1.00
  114                  CONDUIT   2350.17     7  17:27      3.74    0.09    1.00
  115                  CONDUIT   1688.74     7  16:06      2.69    0.23    1.00
  116                  CONDUIT   1203.87     7  22:09      1.92    0.05    1.00
  117                  CONDUIT   1141.39     7  22:09      0.51    0.11    1.00
  118                  CONDUIT   1159.99     7  22:09      1.85    0.07    1.00
  119                  CONDUIT   1169.55     7  22:09      1.86    0.05    1.00
  120                  CONDUIT   1172.86     7  22:09      1.86    0.13    1.00
  121                  CONDUIT   1223.03     7  22:10      0.81    0.02    0.69
  122                  CONDUIT   1085.21     7  22:10      2.20    0.05    0.86
  123                  CONDUIT    928.07     7  22:10      3.56    0.24    0.67
  124                  CONDUIT    518.57     7  15:12      1.45    0.12    0.84
  125                  CONDUIT    534.77     7  15:13      1.38    0.06    0.93
  126                  CONDUIT    453.51     7  15:12      0.60    0.08    1.00
  127                  CONDUIT    168.39     7  22:29      0.44    0.03    0.95
  128                  CONDUIT    168.44     7  22:29      0.42    0.02    1.00
  129                  CONDUIT    158.00     7  19:10      0.25    0.04    1.00
  130                  CONDUIT    158.54     7  19:10      0.50    0.03    1.00
  131                  CONDUIT    159.26     7  19:10      0.51    0.01    0.98
  132                  CONDUIT      0.00     0  00:00      0.00    0.00    0.00
  133                  CONDUIT      0.00     0  00:00      0.00    0.00    0.00
  134                  CONDUIT      0.00     0  00:00      0.00    0.00    0.00
  135                  CONDUIT      0.00     0  00:00      0.00    0.00    0.00
  136                  CONDUIT      0.00     0  00:00      0.00    0.00    0.00
  137                  CONDUIT      0.00     0  00:00      0.00    0.00    0.00
  138                  CONDUIT      0.00     0  00:00      0.00    0.00    0.00
  139                  CONDUIT      0.00     0  00:00      0.00    0.00    0.00
  140                  CONDUIT      0.00     0  00:00      0.00    0.00    0.00
  141                  CONDUIT      0.00     0  00:00      0.00    0.00    0.00
  142                  CONDUIT      0.00     0  00:00      0.00    0.00    0.00
  143                  CONDUIT      0.00     0  00:00      0.00    0.00    0.00
  145                  CONDUIT    126.09     7  15:17      0.56    0.01    0.50
  146                  CONDUIT      0.00     0  00:00      0.00    0.00    0.00
  147                  CONDUIT      0.00     0  00:00      0.00    0.00    0.00
  148                  CONDUIT      0.00     0  00:00      0.00    0.00    0.50
  149                  CONDUIT    688.64     7  17:27      1.51    0.02    0.73
  
  
  ***************************
  Flow Classification Summary
  ***************************
  
  -------------------------------------------------------------------------------------
                      Adjusted    ---------- Fraction of Time in Flow Class ---------- 
                       /Actual         Up    Down  Sub   Sup   Up    Down  Norm  Inlet 
  Conduit               Length    Dry  Dry   Dry   Crit  Crit  Crit  Crit  Ltd   Ctrl  
  -------------------------------------------------------------------------------------
  1                       1.00   1.00  0.00  0.00  0.00  0.00  0.00  0.00  0.05  0.00
  2                       1.00   0.00  1.00  0.00  0.00  0.00  0.00  0.00  0.05  0.00
  3                       1.00   0.00  0.00  0.00  1.00  0.00  0.00  0.00  0.00  0.00
  4                       1.00   0.00  0.00  0.00  1.00  0.00  0.00  0.00  0.00  0.00
  5                       1.16   0.00  0.99  0.00  0.01  0.00  0.00  0.00  0.05  0.00
  6                       1.00   0.00  0.00  0.00  1.00  0.00  0.00  0.00  0.00  0.00
  7                       1.00   0.00  0.00  0.00  1.00  0.00  0.00  0.00  0.00  0.00
  8                       1.00   0.00  0.00  0.00  1.00  0.00  0.00  0.00  0.00  0.00
  9                       1.00   0.00  0.00  0.00  1.00  0.00  0.00  0.00  0.00  0.00
  10                      1.00   0.00  0.00  0.00  1.00  0.00  0.00  0.00  0.00  0.00
  11                      1.00   0.00  0.00  0.00  1.00  0.00  0.00  0.00  0.00  0.00
  12                      1.00   0.00  0.00  0.00  1.00  0.00  0.00  0.00  0.00  0.00
  13                      1.00   0.00  0.00  0.00  1.00  0.00  0.00  0.00  0.00  0.00
  14                      1.00   0.00  0.00  0.00  1.00  0.00  0.00  0.00  0.00  0.00
  15                      1.12   0.00  0.00  0.00  1.00  0.00  0.00  0.00  0.00  0.00
  19                      1.00   0.00  0.00  0.00  1.00  0.00  0.00  0.00  0.00  0.00
  20                      1.00   0.00  0.00  0.00  1.00  0.00  0.00  0.00  0.00  0.00
  21                      1.00   0.00  0.00  0.00  1.00  0.00  0.00  0.00  0.00  0.00
  22                      1.00   0.00  0.00  0.00  1.00  0.00  0.00  0.00  0.00  0.00
  23                      1.00   0.00  0.00  0.00  1.00  0.00  0.00  0.00  0.00  0.00
  24                      1.00   0.00  0.00  0.00  1.00  0.00  0.00  0.00  0.00  0.00
  25                      1.49   0.00  0.00  0.00  1.00  0.00  0.00  0.00  0.05  0.00
  26                      1.00   0.00  0.00  0.00  1.00  0.00  0.00  0.00  0.00  0.00
  27                      1.00   0.00  0.00  0.00  1.00  0.00  0.00  0.00  0.00  0.00
  28                      1.00   0.00  0.00  0.00  1.00  0.00  0.00  0.00  0.00  0.00
  29                      1.00   0.00  0.00  0.00  1.00  0.00  0.00  0.00  0.00  0.00
  30                      1.00   0.00  0.00  0.00  1.00  0.00  0.00  0.00  0.00  0.00
  31                      1.00   0.00  0.00  0.00  1.00  0.00  0.00  0.00  0.00  0.00
  32                      1.00   0.00  0.00  0.00  1.00  0.00  0.00  0.00  0.00  0.00
  33                      1.00   0.00  0.00  0.00  1.00  0.00  0.00  0.00  0.00  0.00
  34                      1.00   0.00  1.00  0.00  0.00  0.00  0.00  0.00  0.00  0.00
  35                      1.00   0.00  0.00  0.00  1.00  0.00  0.00  0.00  0.00  0.00
  36                      1.00   0.00  0.00  0.00  1.00  0.00  0.00  0.00  0.00  0.00
  37                      1.00   0.00  0.00  0.00  1.00  0.00  0.00  0.00  0.00  0.00
  38                      1.00   0.00  0.00  0.00  1.00  0.00  0.00  0.00  0.00  0.00
  39                      1.00   0.00  0.00  0.00  1.00  0.00  0.00  0.00  0.00  0.00
  40                      1.00   0.00  0.00  0.00  1.00  0.00  0.00  0.00  0.00  0.00
  41                      1.00   0.00  0.00  0.00  1.00  0.00  0.00  0.00  0.00  0.00
  42                      1.00   0.00  0.00  0.00  1.00  0.00  0.00  0.00  0.00  0.00
  43                      1.00   0.00  0.00  0.00  1.00  0.00  0.00  0.00  0.00  0.00
  44                      1.00   0.00  0.00  0.00  1.00  0.00  0.00  0.00  0.00  0.00
  45                      1.00   0.00  0.00  0.00  1.00  0.00  0.00  0.00  0.00  0.00
  46                      1.03   0.00  0.00  0.00  1.00  0.00  0.00  0.00  0.00  0.00
  47                      1.00   0.00  0.00  0.00  1.00  0.00  0.00  0.00  0.00  0.00
  48                      1.00   0.00  0.00  0.00  1.00  0.00  0.00  0.00  0.00  0.00
  49                      1.00   0.00  0.00  0.00  1.00  0.00  0.00  0.00  0.00  0.00
  50                      1.00   0.00  0.00  0.00  1.00  0.00  0.00  0.00  0.00  0.00
  51                      1.00   0.00  0.00  0.00  1.00  0.00  0.00  0.00  0.00  0.00
  52                      1.00   0.00  0.00  0.00  1.00  0.00  0.00  0.00  0.00  0.00
  53                      1.00   0.00  0.00  0.00  1.00  0.00  0.00  0.00  0.00  0.00
  54                      1.00   0.00  0.00  0.00  1.00  0.00  0.00  0.00  0.00  0.00
  55                      1.00   0.00  0.00  0.00  1.00  0.00  0.00  0.00  0.00  0.00
  56                      1.00   0.00  0.00  0.00  1.00  0.00  0.00  0.00  0.00  0.00
  57                      1.00   0.00  0.00  0.00  1.00  0.00  0.00  0.00  0.05  0.00
  58                      1.00   0.00  1.00  0.00  0.00  0.00  0.00  0.00  0.00  0.00
  59                      1.00   1.00  0.00  0.00  0.00  0.00  0.00  0.00  0.00  0.00
  60                      1.00   1.00  0.00  0.00  0.00  0.00  0.00  0.00  0.00  0.00
  61                      1.00   1.00  0.00  0.00  0.00  0.00  0.00  0.00  0.00  0.00
  62                      1.04   1.00  0.00  0.00  0.00  0.00  0.00  0.00  0.00  0.00
  63                      1.00   0.00  1.00  0.00  0.00  0.00  0.00  0.00  0.00  0.00
  64                      1.00   0.00  0.00  0.00  1.00  0.00  0.00  0.00  0.00  0.00
  65                      1.00   0.00  0.00  0.00  1.00  0.00  0.00  0.00  0.00  0.00
  67                      1.00   0.00  0.00  0.00  1.00  0.00  0.00  0.00  0.00  0.00
  68                      1.95   0.00  0.00  0.00  1.00  0.00  0.00  0.00  0.00  0.00
  69                      3.49   0.00  0.00  0.00  1.00  0.00  0.00  0.00  0.00  0.00
  70                      1.00   0.00  0.00  0.00  1.00  0.00  0.00  0.00  0.00  0.00
  71                      1.63   0.00  0.00  0.00  1.00  0.00  0.00  0.00  0.00  0.00
  72                      1.00   0.00  0.00  0.00  1.00  0.00  0.00  0.00  0.00  0.00
  73                      1.00   0.00  0.00  0.00  1.00  0.00  0.00  0.00  0.00  0.00
  74                      1.00   0.00  0.00  0.00  1.00  0.00  0.00  0.00  0.00  0.00
  75                      1.00   0.00  0.00  0.00  1.00  0.00  0.00  0.00  0.00  0.00
  76                      1.00   0.00  0.00  0.00  1.00  0.00  0.00  0.00  0.00  0.00
  77                      1.00   0.00  0.00  0.00  1.00  0.00  0.00  0.00  0.00  0.00
  78                      1.00   0.00  0.00  0.00  1.00  0.00  0.00  0.00  0.00  0.00
  79                      1.00   0.00  0.00  0.00  1.00  0.00  0.00  0.00  0.00  0.00
  80                      1.00   0.00  0.00  0.00  1.00  0.00  0.00  0.00  0.00  0.00
  81                      1.00   0.00  0.00  0.00  1.00  0.00  0.00  0.00  0.00  0.00
  82                      1.00   0.00  0.00  0.00  1.00  0.00  0.00  0.00  0.00  0.00
  83                      1.00   0.00  0.00  0.00  1.00  0.00  0.00  0.00  0.00  0.00
  84                      1.00   0.00  0.00  0.00  1.00  0.00  0.00  0.00  0.00  0.00
  85                      1.00   0.00  0.00  0.00  1.00  0.00  0.00  0.00  0.00  0.00
  86                      1.00   0.00  0.00  0.00  1.00  0.00  0.00  0.00  0.00  0.00
  87                      1.00   0.00  0.00  0.00  1.00  0.00  0.00  0.00  0.00  0.00
  88                      1.04   0.00  0.00  0.00  1.00  0.00  0.00  0.00  0.00  0.00
  89                      1.00   0.00  1.00  0.00  0.00  0.00  0.00  0.00  0.00  0.00
  90                      9.81   0.00  0.00  0.00  1.00  0.00  0.00  0.00  0.00  0.00
  91                     40.90   0.00  0.00  0.00  1.00  0.00  0.00  0.00  0.00  0.00
  92                    776.95   0.00  1.00  0.00  0.00  0.00  0.00  0.00  0.00  0.00
  93                      8.28   0.00  0.00  0.00  1.00  0.00  0.00  0.00  0.00  0.00
  94                      1.46   0.00  0.00  0.00  1.00  0.00  0.00  0.00  0.00  0.00
  95                      1.00   0.00  1.00  0.00  0.00  0.00  0.00  0.00  0.02  0.00
  96                      1.93   0.00  0.01  0.00  0.99  0.00  0.00  0.00  0.00  0.00
  97                      1.21   0.00  1.00  0.00  0.00  0.00  0.00  0.00  0.00  0.00
  98                      1.20   0.00  0.00  0.00  1.00  0.00  0.00  0.00  0.05  0.00
  99                      1.35   0.00  1.00  0.00  0.00  0.00  0.00  0.00  0.05  0.00
  100                     1.54   0.00  0.00  0.00  1.00  0.00  0.00  0.00  0.05  0.00
  101                     1.00   1.00  0.00  0.00  0.00  0.00  0.00  0.00  0.00  0.00
  102                     1.16   0.00  1.00  0.00  0.00  0.00  0.00  0.00  0.00  0.00
  103                     1.00   0.00  0.00  0.00  1.00  0.00  0.00  0.00  0.00  0.00
  104                     1.00   0.00  1.00  0.00  0.00  0.00  0.00  0.00  0.05  0.00
  17                      1.00   0.00  0.00  0.00  1.00  0.00  0.00  0.00  0.00  0.00
  18                      1.00   0.00  0.00  0.00  1.00  0.00  0.00  0.00  0.00  0.00
  66                      1.00   0.00  0.00  0.00  1.00  0.00  0.00  0.00  0.00  0.00
  105                     1.00   0.00  0.00  0.00  1.00  0.00  0.00  0.00  0.00  0.00
  106                     1.00   0.00  0.00  0.00  1.00  0.00  0.00  0.00  0.00  0.00
  107                     1.00   0.00  0.00  0.00  1.00  0.00  0.00  0.00  0.00  0.00
  108                     1.00   0.00  0.00  0.00  1.00  0.00  0.00  0.00  0.00  0.00
  109                     1.00   0.00  0.00  0.00  1.00  0.00  0.00  0.00  0.00  0.00
  110                     1.00   0.00  0.00  0.00  1.00  0.00  0.00  0.00  0.00  0.00
  111                     1.00   0.00  0.00  0.00  1.00  0.00  0.00  0.00  0.00  0.00
  112                     1.00   0.00  0.00  0.00  1.00  0.00  0.00  0.00  0.00  0.00
  113                     1.31   0.00  0.00  0.00  1.00  0.00  0.00  0.00  0.00  0.00
  114                     1.00   0.00  0.00  0.00  1.00  0.00  0.00  0.00  0.00  0.00
  115                     1.00   0.00  0.00  0.00  1.00  0.00  0.00  0.00  0.00  0.00
  116                     1.00   0.00  0.00  0.00  1.00  0.00  0.00  0.00  0.00  0.00
  117                     1.00   0.00  0.00  0.00  1.00  0.00  0.00  0.00  0.00  0.00
  118                     1.00   0.00  0.00  0.00  1.00  0.00  0.00  0.00  0.00  0.00
  119                     1.00   0.00  0.00  0.00  1.00  0.00  0.00  0.00  0.00  0.00
  120                     1.00   0.00  0.00  0.00  1.00  0.00  0.00  0.00  0.00  0.00
  121                     1.00   0.00  0.00  0.00  1.00  0.00  0.00  0.00  0.00  0.00
  122                     1.00   0.00  0.00  0.00  1.00  0.00  0.00  0.00  0.00  0.00
  123                     1.27   0.00  0.00  0.00  1.00  0.00  0.00  0.00  0.00  0.00
  124                     1.00   0.00  0.00  0.00  1.00  0.00  0.00  0.00  0.00  0.00
  125                     1.00   0.00  0.00  0.00  1.00  0.00  0.00  0.00  0.00  0.00
  126                     1.00   0.00  0.00  0.00  1.00  0.00  0.00  0.00  0.00  0.00
  127                     1.00   0.00  0.00  0.00  1.00  0.00  0.00  0.00  0.00  0.00
  128                     1.00   0.00  0.00  0.00  1.00  0.00  0.00  0.00  0.00  0.00
  129                     1.00   0.00  0.00  0.00  1.00  0.00  0.00  0.00  0.00  0.00
  130                     1.00   0.00  0.00  0.00  1.00  0.00  0.00  0.00  0.00  0.00
  131                     1.00   0.00  0.00  0.00  1.00  0.00  0.00  0.00  0.00  0.00
  132                     1.85   1.00  0.00  0.00  0.00  0.00  0.00  0.00  0.00  0.00
  133                     1.00   1.00  0.00  0.00  0.00  0.00  0.00  0.00  0.00  0.00
  134                     1.00   1.00  0.00  0.00  0.00  0.00  0.00  0.00  0.00  0.00
  135                     1.12   1.00  0.00  0.00  0.00  0.00  0.00  0.00  0.00  0.00
  136                     1.00   1.00  0.00  0.00  0.00  0.00  0.00  0.00  0.00  0.00
  137                     1.00   1.00  0.00  0.00  0.00  0.00  0.00  0.00  0.00  0.00
  138                     1.00   1.00  0.00  0.00  0.00  0.00  0.00  0.00  0.00  0.00
  139                     1.00   1.00  0.00  0.00  0.00  0.00  0.00  0.00  0.00  0.00
  140                     1.33   1.00  0.00  0.00  0.00  0.00  0.00  0.00  0.00  0.00
  141                     1.18   1.00  0.00  0.00  0.00  0.00  0.00  0.00  0.00  0.00
  142                     1.00   1.00  0.00  0.00  0.00  0.00  0.00  0.00  0.00  0.00
  143                     1.00   1.00  0.00  0.00  0.00  0.00  0.00  0.00  0.00  0.00
  145                     1.00   0.00  0.79  0.00  0.21  0.00  0.00  0.00  0.05  0.00
  146                     2.31   1.00  0.00  0.00  0.00  0.00  0.00  0.00  0.00  0.00
  147                    90.89   1.00  0.00  0.00  0.00  0.00  0.00  0.00  0.00  0.00
  148                     2.61   0.00  1.00  0.00  0.00  0.00  0.00  0.00  0.00  0.00
  149                     1.00   0.00  0.00  0.00  1.00  0.00  0.00  0.00  0.00  0.00
  
  
  *************************
  Conduit Surcharge Summary
  *************************
  
  ----------------------------------------------------------------------------
                                                           Hours        Hours 
                         --------- Hours Full --------   Above Full   Capacity
  Conduit                Both Ends  Upstream  Dnstream   Normal Flow   Limited
  ----------------------------------------------------------------------------
  7                           0.01      0.01     10.00      0.01         0.01
  8                          10.00     10.00     10.00      0.01         3.08
  9                          10.00     10.00     10.00      0.01         0.01
  10                         10.00     10.00     10.00      0.01         0.01
  11                         10.00     10.00     10.00      0.01         0.01
  12                         10.00     10.00     10.00      0.01         0.01
  13                         10.00     10.00     10.00      0.01         0.01
  14                         10.00     10.00     10.00      0.01         0.01
  15                          0.01      0.01     10.00      0.01         0.01
  19                         10.00     10.00     10.00      0.01         0.01
  20                         10.00     10.00     10.00      0.01         0.01
  21                         10.00     10.00     10.00      0.01         0.01
  22                          0.01      0.01     10.00      0.01         0.01
  29                          0.01      0.01     10.00      0.01         0.01
  31                         10.00     10.00     10.00      0.01         0.01
  32                         10.00     10.00     10.00      0.01         0.01
  33                         10.00     10.00     10.00      0.01         0.01
  37                         10.00     10.00     10.00      0.01         0.01
  38                         10.00     10.00     10.00      0.01         0.01
  39                         10.00     10.00     10.00      0.01         4.86
  40                         10.00     10.00     10.00      0.01         0.01
  41                         10.00     10.00     10.00      0.01         0.01
  42                         10.00     10.00     10.00      0.01         0.01
  44                         10.00     10.00     10.00      0.01         0.01
  45                         10.00     10.00     10.00      0.01         0.01
  46                         10.00     10.00     10.00      0.01         0.01
  47                         10.00     10.00     10.00      0.01         0.01
  48                         10.00     10.00     10.00      0.01         4.94
  49                         10.00     10.00     10.00      0.01         0.01
  50                          0.01      0.01     10.00      0.01         0.01
  51                          0.01      0.01     10.00      0.01         0.01
  53                          0.01      0.01     10.00      0.01         0.01
  54                         10.00     10.00     10.00      0.01         0.01
  55                         10.00     10.00     10.00      0.01         0.01
  56                         10.00     10.00     10.00      0.01         2.82
  57                          0.01      0.01     10.00      0.01         0.01
  65                          0.01      0.01     10.00      0.01         0.01
  68                         10.00     10.00     10.00      0.01         0.01
  70                          9.89      9.90      9.99      0.01         0.10
  71                          0.01      0.01     10.00      0.01         0.01
  72                         10.00     10.00     10.00      0.01         0.01
  74                          0.01      0.01     10.00      0.01         0.01
  75                         10.00     10.00     10.00      0.01         0.01
  76                         10.00     10.00     10.00      0.01         5.97
  77                         10.00     10.00     10.00      0.01         0.01
  78                         10.00     10.00     10.00      0.01         4.04
  79                          0.01      0.01     10.00      0.01         0.01
  80                         10.00     10.00     10.00      0.01         4.70
  81                         10.00     10.00     10.00      0.01         0.01
  82                         10.00     10.00     10.00      0.01         0.01
  83                         10.00     10.00     10.00      0.01         0.01
  85                         10.00     10.00     10.00      0.01         4.83
  86                         10.00     10.00     10.00      0.01         0.01
  87                          0.01      0.01     10.00      0.01         0.01
  90                          0.01      0.01     10.00      0.01         0.01
  91                         10.00     10.00     10.00      0.01         0.01
  93                          0.01      0.01     10.00      0.01         0.01
  94                         10.00     10.00     10.00      0.01         0.01
  17                         10.00     10.00     10.00      0.01         0.01
  18                         10.00     10.00     10.00      0.01         0.01
  66                         10.00     10.00     10.00      0.01         0.01
  105                         9.94      9.95      9.94      0.01         3.19
  106                        10.00     10.00     10.00      0.01         0.01
  107                         2.42      2.42     10.00      0.01         0.01
  108                         2.43      2.43      9.99      0.01         0.01
  109                         0.01      0.01      9.99      0.01         0.01
  110                         0.01      0.01      9.99      0.01         0.01
  111                         9.98      9.99      9.98      0.16         3.61
  112                         0.01      0.04      0.08      0.10         0.01
  113                         9.96      9.98      9.96      0.12         2.41
  114                         9.96      9.96     10.00      0.01         0.01
  115                        10.00     10.00     10.00      0.01         0.03
  116                        10.00     10.00     10.00      0.01         0.01
  117                        10.00     10.00     10.00      0.01         0.09
  118                        10.00     10.00     10.00      0.01         0.01
  119                        10.00     10.00     10.00      0.01         0.01
  120                        10.00     10.00     10.00      0.01         0.01
  122                         0.01      0.01     10.00      0.01         0.01
  124                         0.01      0.01      5.46      0.01         0.01
  125                         0.01      0.01      5.46      0.01         0.01
  126                        10.00     10.00     10.00      0.01         0.01
  127                         0.01      0.01     10.00      0.01         0.01
  128                         8.16      8.16     10.00      0.01         0.01
  129                        10.00     10.00     10.00      0.01         0.01
  130                        10.00     10.00     10.00      0.01         0.01
  131                         0.01      0.01     10.00      0.01         0.01
  149                         0.01      0.01     10.00      0.01         0.01
  
  
  ************
  Node Results
  ************
  
  <<< Node 1 >>>
  ----------------------------------------------------------------
                           Inflow  Flooding     Depth      Head
  Date        Time            CFS       CFS      feet      feet
  ----------------------------------------------------------------
   01/08/2020 14:00:00      0.000     0.000     0.000    10.010
   01/08/2020 14:15:00      0.000     0.000     0.000    10.010
   01/08/2020 14:30:00      0.000     0.000     0.000    10.010
   01/08/2020 14:45:00      0.000     0.000     0.000    10.010
   01/08/2020 15:00:00      0.000     0.000     0.000    10.010
   01/08/2020 15:15:00      0.000     0.000     0.000    10.010
   01/08/2020 15:30:00      0.000     0.000     0.000    10.010
   01/08/2020 15:45:00      0.000     0.000     0.000    10.010
   01/08/2020 16:00:00      0.000     0.000     0.000    10.010
   01/08/2020 16:15:00      0.000     0.000     0.000    10.010
   01/08/2020 16:30:00      0.000     0.000     0.000    10.010
   01/08/2020 16:45:00      0.000     0.000     0.000    10.010
   01/08/2020 17:00:00      0.000     0.000     0.000    10.010
   01/08/2020 17:15:00      0.000     0.000     0.000    10.010
   01/08/2020 17:30:00      0.000     0.000     0.000    10.010
   01/08/2020 17:45:00      0.000     0.000     0.000    10.010
   01/08/2020 18:00:00      0.000     0.000     0.000    10.010
   01/08/2020 18:15:00      0.000     0.000     0.000    10.010
   01/08/2020 18:30:00      0.000     0.000     0.000    10.010
   01/08/2020 18:45:00      0.000     0.000     0.000    10.010
   01/08/2020 19:00:00      0.000     0.000     0.000    10.010
   01/08/2020 19:15:00      0.000     0.000     0.000    10.010
   01/08/2020 19:30:00      0.000     0.000     0.000    10.010
   01/08/2020 19:45:00      0.000     0.000     0.000    10.010
   01/08/2020 20:00:00      0.000     0.000     0.000    10.010
   01/08/2020 20:15:00      0.000     0.000     0.000    10.010
   01/08/2020 20:30:00      0.000     0.000     0.000    10.010
   01/08/2020 20:45:00      0.000     0.000     0.000    10.010
   01/08/2020 21:00:00      0.000     0.000     0.000    10.010
   01/08/2020 21:15:00      0.000     0.000     0.000    10.010
   01/08/2020 21:30:00      0.000     0.000     0.000    10.010
   01/08/2020 21:45:00      0.000     0.000     0.000    10.010
   01/08/2020 22:00:00      0.000     0.000     0.000    10.010
   01/08/2020 22:15:00      0.000     0.000     0.000    10.010
   01/08/2020 22:30:00      0.000     0.000     0.000    10.010
   01/08/2020 22:45:00      0.000     0.000     0.000    10.010
   01/08/2020 23:00:00      0.000     0.000     0.000    10.010
   01/08/2020 23:15:00      0.000     0.000     0.000    10.010
   01/08/2020 23:30:00      0.000     0.000     0.000    10.010
   01/08/2020 23:45:00      0.000     0.000     0.000    10.010
   01/09/2020 00:00:00      0.000     0.000     0.000    10.010
  
  
  <<< Node 2 >>>
  ----------------------------------------------------------------
                           Inflow  Flooding     Depth      Head
  Date        Time            CFS       CFS      feet      feet
  ----------------------------------------------------------------
   01/08/2020 14:00:00      0.000     0.000     0.000     8.990
   01/08/2020 14:15:00      0.000     0.000     0.000     8.990
   01/08/2020 14:30:00      0.000     0.000     0.000     8.990
   01/08/2020 14:45:00      0.000     0.000     0.000     8.990
   01/08/2020 15:00:00      0.000     0.000     0.000     8.990
   01/08/2020 15:15:00      0.000     0.000     0.000     8.990
   01/08/2020 15:30:00      0.000     0.000     0.000     8.990
   01/08/2020 15:45:00      0.000     0.000     0.000     8.990
   01/08/2020 16:00:00      0.000     0.000     0.000     8.990
   01/08/2020 16:15:00      0.000     0.000     0.000     8.990
   01/08/2020 16:30:00      0.000     0.000     0.000     8.990
   01/08/2020 16:45:00      0.000     0.000     0.000     8.990
   01/08/2020 17:00:00      0.000     0.000     0.000     8.990
   01/08/2020 17:15:00      0.000     0.000     0.000     8.990
   01/08/2020 17:30:00      0.000     0.000     0.000     8.990
   01/08/2020 17:45:00      0.000     0.000     0.000     8.990
   01/08/2020 18:00:00      0.000     0.000     0.000     8.990
   01/08/2020 18:15:00      0.000     0.000     0.000     8.990
   01/08/2020 18:30:00      0.000     0.000     0.000     8.990
   01/08/2020 18:45:00      0.000     0.000     0.000     8.990
   01/08/2020 19:00:00      0.000     0.000     0.000     8.990
   01/08/2020 19:15:00      0.000     0.000     0.000     8.990
   01/08/2020 19:30:00      0.000     0.000     0.000     8.990
   01/08/2020 19:45:00      0.000     0.000     0.000     8.990
   01/08/2020 20:00:00      0.000     0.000     0.000     8.990
   01/08/2020 20:15:00      0.000     0.000     0.000     8.990
   01/08/2020 20:30:00      0.000     0.000     0.000     8.990
   01/08/2020 20:45:00      0.000     0.000     0.000     8.990
   01/08/2020 21:00:00      0.000     0.000     0.000     8.990
   01/08/2020 21:15:00      0.000     0.000     0.000     8.990
   01/08/2020 21:30:00      0.000     0.000     0.000     8.990
   01/08/2020 21:45:00      0.000     0.000     0.000     8.990
   01/08/2020 22:00:00      0.000     0.000     0.000     8.990
   01/08/2020 22:15:00      0.000     0.000     0.000     8.990
   01/08/2020 22:30:00      0.000     0.000     0.000     8.990
   01/08/2020 22:45:00      0.000     0.000     0.000     8.990
   01/08/2020 23:00:00      0.000     0.000     0.000     8.990
   01/08/2020 23:15:00      0.000     0.000     0.000     8.990
[...]
   01/08/2020 16:15:00      0.000     0.000     0.000     0.000
   01/08/2020 16:30:00      0.000     0.000     0.000     0.000
   01/08/2020 16:45:00      0.000     0.000     0.000     0.000
   01/08/2020 17:00:00      0.000     0.000     0.000     0.000
   01/08/2020 17:15:00      0.000     0.000     0.000     0.000
   01/08/2020 17:30:00      0.000     0.000     0.000     0.000
   01/08/2020 17:45:00      0.000     0.000     0.000     0.000
   01/08/2020 18:00:00      0.000     0.000     0.000     0.000
   01/08/2020 18:15:00      0.000     0.000     0.000     0.000
   01/08/2020 18:30:00      0.000     0.000     0.000     0.000
   01/08/2020 18:45:00      0.000     0.000     0.000     0.000
   01/08/2020 19:00:00      0.000     0.000     0.000     0.000
   01/08/2020 19:15:00      0.000     0.000     0.000     0.000
   01/08/2020 19:30:00      0.000     0.000     0.000     0.000
   01/08/2020 19:45:00      0.000     0.000     0.000     0.000
   01/08/2020 20:00:00      0.000     0.000     0.000     0.000
   01/08/2020 20:15:00      0.000     0.000     0.000     0.000
   01/08/2020 20:30:00      0.000     0.000     0.000     0.000
   01/08/2020 20:45:00      0.000     0.000     0.000     0.000
   01/08/2020 21:00:00      0.000     0.000     0.000     0.000
   01/08/2020 21:15:00      0.000     0.000     0.000     0.000
   01/08/2020 21:30:00      0.000     0.000     0.000     0.000
   01/08/2020 21:45:00      0.000     0.000     0.000     0.000
   01/08/2020 22:00:00      0.000     0.000     0.000     0.000
   01/08/2020 22:15:00      0.000     0.000     0.000     0.000
   01/08/2020 22:30:00      0.000     0.000     0.000     0.000
   01/08/2020 22:45:00      0.000     0.000     0.000     0.000
   01/08/2020 23:00:00      0.000     0.000     0.000     0.000
   01/08/2020 23:15:00      0.000     0.000     0.000     0.000
   01/08/2020 23:30:00      0.000     0.000     0.000     0.000
   01/08/2020 23:45:00      0.000     0.000     0.000     0.000
   01/09/2020 00:00:00      0.000     0.000     0.000     0.000
  
  
  <<< Link 143 >>>
  ----------------------------------------------------------------
                             Flow  Velocity     Depth  Capacity/
  Date        Time            CFS    ft/sec      feet   Setting 
  ----------------------------------------------------------------
   01/08/2020 14:00:00      0.000     0.000     0.000     0.000
   01/08/2020 14:15:00      0.000     0.000     0.000     0.000
   01/08/2020 14:30:00      0.000     0.000     0.000     0.000
   01/08/2020 14:45:00      0.000     0.000     0.000     0.000
   01/08/2020 15:00:00      0.000     0.000     0.000     0.000
   01/08/2020 15:15:00      0.000     0.000     0.000     0.000
   01/08/2020 15:30:00      0.000     0.000     0.000     0.000
   01/08/2020 15:45:00      0.000     0.000     0.000     0.000
   01/08/2020 16:00:00      0.000     0.000     0.000     0.000
   01/08/2020 16:15:00      0.000     0.000     0.000     0.000
   01/08/2020 16:30:00      0.000     0.000     0.000     0.000
   01/08/2020 16:45:00      0.000     0.000     0.000     0.000
   01/08/2020 17:00:00      0.000     0.000     0.000     0.000
   01/08/2020 17:15:00      0.000     0.000     0.000     0.000
   01/08/2020 17:30:00      0.000     0.000     0.000     0.000
   01/08/2020 17:45:00      0.000     0.000     0.000     0.000
   01/08/2020 18:00:00      0.000     0.000     0.000     0.000
   01/08/2020 18:15:00      0.000     0.000     0.000     0.000
   01/08/2020 18:30:00      0.000     0.000     0.000     0.000
   01/08/2020 18:45:00      0.000     0.000     0.000     0.000
   01/08/2020 19:00:00      0.000     0.000     0.000     0.000
   01/08/2020 19:15:00      0.000     0.000     0.000     0.000
   01/08/2020 19:30:00      0.000     0.000     0.000     0.000
   01/08/2020 19:45:00      0.000     0.000     0.000     0.000
   01/08/2020 20:00:00      0.000     0.000     0.000     0.000
   01/08/2020 20:15:00      0.000     0.000     0.000     0.000
   01/08/2020 20:30:00      0.000     0.000     0.000     0.000
   01/08/2020 20:45:00      0.000     0.000     0.000     0.000
   01/08/2020 21:00:00      0.000     0.000     0.000     0.000
   01/08/2020 21:15:00      0.000     0.000     0.000     0.000
   01/08/2020 21:30:00      0.000     0.000     0.000     0.000
   01/08/2020 21:45:00      0.000     0.000     0.000     0.000
   01/08/2020 22:00:00      0.000     0.000     0.000     0.000
   01/08/2020 22:15:00      0.000     0.000     0.000     0.000
   01/08/2020 22:30:00      0.000     0.000     0.000     0.000
   01/08/2020 22:45:00      0.000     0.000     0.000     0.000
   01/08/2020 23:00:00      0.000     0.000     0.000     0.000
   01/08/2020 23:15:00      0.000     0.000     0.000     0.000
   01/08/2020 23:30:00      0.000     0.000     0.000     0.000
   01/08/2020 23:45:00      0.000     0.000     0.000     0.000
   01/09/2020 00:00:00      0.000     0.000     0.000     0.000
  
  
  <<< Link 145 >>>
  ----------------------------------------------------------------
                             Flow  Velocity     Depth  Capacity/
  Date        Time            CFS    ft/sec      feet   Setting 
  ----------------------------------------------------------------
   01/08/2020 14:00:00     93.118     0.421     7.376     0.492
   01/08/2020 14:15:00     25.479     0.120     7.082     0.472
   01/08/2020 14:30:00     -0.000    -0.000     6.526     0.435
   01/08/2020 14:45:00     -0.000    -0.000     6.377     0.425
   01/08/2020 15:00:00     -0.000    -0.000     6.584     0.439
   01/08/2020 15:15:00     88.840     0.401     7.388     0.493
   01/08/2020 15:30:00     -0.000    -0.000     6.326     0.422
   01/08/2020 15:45:00     -0.000    -0.000     6.353     0.424
   01/08/2020 16:00:00     -0.000    -0.000     6.814     0.454
   01/08/2020 16:15:00     63.998     0.293     7.292     0.486
   01/08/2020 16:30:00     -0.000    -0.000     6.517     0.434
   01/08/2020 16:45:00     -0.000    -0.000     6.526     0.435
   01/08/2020 17:00:00     -0.000    -0.000     6.478     0.432
   01/08/2020 17:15:00     -0.000    -0.000     6.837     0.456
   01/08/2020 17:30:00     -0.000    -0.000     6.376     0.425
   01/08/2020 17:45:00     -0.000    -0.000     6.451     0.430
   01/08/2020 18:00:00     -0.000    -0.000     6.637     0.442
   01/08/2020 18:15:00     -0.000    -0.000     6.569     0.438
   01/08/2020 18:30:00     -0.000    -0.000     6.802     0.453
   01/08/2020 18:45:00     -0.000    -0.000     6.572     0.438
   01/08/2020 19:00:00     58.644     0.269     7.279     0.485
   01/08/2020 19:15:00     -0.000    -0.000     6.587     0.439
   01/08/2020 19:30:00     -0.000    -0.000     6.355     0.424
   01/08/2020 19:45:00    -41.861    -0.201     6.932     0.462
   01/08/2020 20:00:00     -4.601    -0.022     6.841     0.456
   01/08/2020 20:15:00     -4.686    -0.023     6.816     0.454
   01/08/2020 20:30:00     -4.742    -0.024     6.456     0.430
   01/08/2020 20:45:00     -0.000    -0.000     6.185     0.412
   01/08/2020 21:00:00      4.797     0.023     6.935     0.462
   01/08/2020 21:15:00     -0.000    -0.000     6.703     0.447
   01/08/2020 21:30:00     -0.000    -0.000     6.268     0.418
   01/08/2020 21:45:00     -0.000    -0.000     6.523     0.435
   01/08/2020 22:00:00     -0.000    -0.000     6.298     0.420
   01/08/2020 22:15:00     -0.000    -0.000     6.015     0.401
   01/08/2020 22:30:00     -0.000    -0.000     6.263     0.418
   01/08/2020 22:45:00     -0.000    -0.000     5.659     0.377
   01/08/2020 23:00:00     -0.000    -0.000     5.958     0.397
   01/08/2020 23:15:00     -0.000    -0.000     6.013     0.401
   01/08/2020 23:30:00     -0.000    -0.000     6.003     0.400
   01/08/2020 23:45:00     -0.000    -0.000     6.153     0.410
   01/09/2020 00:00:00     -0.000    -0.000     5.725     0.382
  
  
  <<< Link 146 >>>
  ----------------------------------------------------------------
                             Flow  Velocity     Depth  Capacity/
  Date        Time            CFS    ft/sec      feet   Setting 
  ----------------------------------------------------------------
   01/08/2020 14:00:00     -0.000    -0.000     0.000     0.000
   01/08/2020 14:15:00     -0.000    -0.000     0.000     0.000
   01/08/2020 14:30:00     -0.000    -0.000     0.000     0.000
   01/08/2020 14:45:00     -0.000    -0.000     0.000     0.000
   01/08/2020 15:00:00     -0.000    -0.000     0.000     0.000
   01/08/2020 15:15:00     -0.000    -0.000     0.000     0.000
   01/08/2020 15:30:00     -0.000    -0.000     0.000     0.000
   01/08/2020 15:45:00     -0.000    -0.000     0.000     0.000
   01/08/2020 16:00:00     -0.000    -0.000     0.000     0.000
   01/08/2020 16:15:00     -0.000    -0.000     0.000     0.000
   01/08/2020 16:30:00     -0.000    -0.000     0.000     0.000
   01/08/2020 16:45:00     -0.000    -0.000     0.000     0.000
   01/08/2020 17:00:00     -0.000    -0.000     0.000     0.000
   01/08/2020 17:15:00     -0.000    -0.000     0.000     0.000
   01/08/2020 17:30:00     -0.000    -0.000     0.000     0.000
   01/08/2020 17:45:00     -0.000    -0.000     0.000     0.000
   01/08/2020 18:00:00     -0.000    -0.000     0.000     0.000
   01/08/2020 18:15:00     -0.000    -0.000     0.000     0.000
   01/08/2020 18:30:00     -0.000    -0.000     0.000     0.000
   01/08/2020 18:45:00     -0.000    -0.000     0.000     0.000
   01/08/2020 19:00:00     -0.000    -0.000     0.000     0.000
   01/08/2020 19:15:00     -0.000    -0.000     0.000     0.000
   01/08/2020 19:30:00     -0.000    -0.000     0.000     0.000
   01/08/2020 19:45:00     -0.000    -0.000     0.000     0.000
   01/08/2020 20:00:00     -0.000    -0.000     0.000     0.000
   01/08/2020 20:15:00     -0.000    -0.000     0.000     0.000
   01/08/2020 20:30:00     -0.000    -0.000     0.000     0.000
   01/08/2020 20:45:00     -0.000    -0.000     0.000     0.000
   01/08/2020 21:00:00     -0.000    -0.000     0.000     0.000
   01/08/2020 21:15:00     -0.000    -0.000     0.000     0.000
   01/08/2020 21:30:00     -0.000    -0.000     0.000     0.000
   01/08/2020 21:45:00     -0.000    -0.000     0.000     0.000
   01/08/2020 22:00:00     -0.000    -0.000     0.000     0.000
   01/08/2020 22:15:00     -0.000    -0.000     0.000     0.000
   01/08/2020 22:30:00     -0.000    -0.000     0.000     0.000
   01/08/2020 22:45:00     -0.000    -0.000     0.000     0.000
   01/08/2020 23:00:00     -0.000    -0.000     0.000     0.000
   01/08/2020 23:15:00     -0.000    -0.000     0.000     0.000
   01/08/2020 23:30:00     -0.000    -0.000     0.000     0.000
   01/08/2020 23:45:00     -0.000    -0.000     0.000     0.000
   01/09/2020 00:00:00     -0.000    -0.000     0.000     0.000
  
  
  <<< Link 147 >>>
  ----------------------------------------------------------------
                             Flow  Velocity     Depth  Capacity/
  Date        Time            CFS    ft/sec      feet   Setting 
  ----------------------------------------------------------------
   01/08/2020 14:00:00      0.000     0.000     0.000     0.000
   01/08/2020 14:15:00      0.000     0.000     0.000     0.000
   01/08/2020 14:30:00      0.000     0.000     0.000     0.000
   01/08/2020 14:45:00      0.000     0.000     0.000     0.000
   01/08/2020 15:00:00      0.000     0.000     0.000     0.000
   01/08/2020 15:15:00      0.000     0.000     0.000     0.000
   01/08/2020 15:30:00      0.000     0.000     0.000     0.000
   01/08/2020 15:45:00      0.000     0.000     0.000     0.000
   01/08/2020 16:00:00      0.000     0.000     0.000     0.000
   01/08/2020 16:15:00      0.000     0.000     0.000     0.000
   01/08/2020 16:30:00      0.000     0.000     0.000     0.000
   01/08/2020 16:45:00      0.000     0.000     0.000     0.000
   01/08/2020 17:00:00      0.000     0.000     0.000     0.000
   01/08/2020 17:15:00      0.000     0.000     0.000     0.000
   01/08/2020 17:30:00      0.000     0.000     0.000     0.000
   01/08/2020 17:45:00      0.000     0.000     0.000     0.000
   01/08/2020 18:00:00      0.000     0.000     0.000     0.000
   01/08/2020 18:15:00      0.000     0.000     0.000     0.000
   01/08/2020 18:30:00      0.000     0.000     0.000     0.000
   01/08/2020 18:45:00      0.000     0.000     0.000     0.000
   01/08/2020 19:00:00      0.000     0.000     0.000     0.000
   01/08/2020 19:15:00      0.000     0.000     0.000     0.000
   01/08/2020 19:30:00      0.000     0.000     0.000     0.000
   01/08/2020 19:45:00      0.000     0.000     0.000     0.000
   01/08/2020 20:00:00      0.000     0.000     0.000     0.000
   01/08/2020 20:15:00      0.000     0.000     0.000     0.000
   01/08/2020 20:30:00      0.000     0.000     0.000     0.000
   01/08/2020 20:45:00      0.000     0.000     0.000     0.000
   01/08/2020 21:00:00      0.000     0.000     0.000     0.000
   01/08/2020 21:15:00      0.000     0.000     0.000     0.000
   01/08/2020 21:30:00      0.000     0.000     0.000     0.000
   01/08/2020 21:45:00      0.000     0.000     0.000     0.000
   01/08/2020 22:00:00      0.000     0.000     0.000     0.000
   01/08/2020 22:15:00      0.000     0.000     0.000     0.000
   01/08/2020 22:30:00      0.000     0.000     0.000     0.000
   01/08/2020 22:45:00      0.000     0.000     0.000     0.000
   01/08/2020 23:00:00      0.000     0.000     0.000     0.000
   01/08/2020 23:15:00      0.000     0.000     0.000     0.000
   01/08/2020 23:30:00      0.000     0.000     0.000     0.000
   01/08/2020 23:45:00      0.000     0.000     0.000     0.000
   01/09/2020 00:00:00      0.000     0.000     0.000     0.000
  
  
  <<< Link 148 >>>
  ----------------------------------------------------------------
                             Flow  Velocity     Depth  Capacity/
  Date        Time            CFS    ft/sec      feet   Setting 
  ----------------------------------------------------------------
   01/08/2020 14:00:00      0.000     0.000     7.500     0.500
   01/08/2020 14:15:00      0.000     0.000     7.500     0.500
   01/08/2020 14:30:00      0.000     0.000     7.500     0.500
   01/08/2020 14:45:00      0.000     0.000     7.500     0.500
   01/08/2020 15:00:00      0.000     0.000     7.500     0.500
   01/08/2020 15:15:00      0.000     0.000     7.500     0.500
   01/08/2020 15:30:00      0.000     0.000     7.500     0.500
   01/08/2020 15:45:00      0.000     0.000     7.500     0.500
   01/08/2020 16:00:00      0.000     0.000     7.500     0.500
   01/08/2020 16:15:00      0.000     0.000     7.500     0.500
   01/08/2020 16:30:00      0.000     0.000     7.500     0.500
   01/08/2020 16:45:00      0.000     0.000     7.500     0.500
   01/08/2020 17:00:00      0.000     0.000     7.500     0.500
   01/08/2020 17:15:00      0.000     0.000     7.500     0.500
   01/08/2020 17:30:00      0.000     0.000     7.500     0.500
   01/08/2020 17:45:00      0.000     0.000     7.500     0.500
   01/08/2020 18:00:00      0.000     0.000     7.500     0.500
   01/08/2020 18:15:00      0.000     0.000     7.500     0.500
   01/08/2020 18:30:00      0.000     0.000     7.500     0.500
   01/08/2020 18:45:00      0.000     0.000     7.500     0.500
   01/08/2020 19:00:00      0.000     0.000     7.500     0.500
   01/08/2020 19:15:00      0.000     0.000     7.500     0.500
   01/08/2020 19:30:00      0.000     0.000     7.500     0.500
   01/08/2020 19:45:00      0.000     0.000     7.500     0.500
   01/08/2020 20:00:00      0.000     0.000     7.500     0.500
   01/08/2020 20:15:00      0.000     0.000     7.500     0.500
   01/08/2020 20:30:00      0.000     0.000     7.500     0.500
   01/08/2020 20:45:00      0.000     0.000     7.500     0.500
   01/08/2020 21:00:00      0.000     0.000     7.500     0.500
   01/08/2020 21:15:00      0.000     0.000     7.500     0.500
   01/08/2020 21:30:00      0.000     0.000     7.500     0.500
   01/08/2020 21:45:00      0.000     0.000     7.500     0.500
   01/08/2020 22:00:00      0.000     0.000     7.500     0.500
   01/08/2020 22:15:00      0.000     0.000     7.500     0.500
   01/08/2020 22:30:00      0.000     0.000     7.500     0.500
   01/08/2020 22:45:00      0.000     0.000     7.500     0.500
   01/08/2020 23:00:00      0.000     0.000     7.500     0.500
   01/08/2020 23:15:00      0.000     0.000     7.500     0.500
   01/08/2020 23:30:00      0.000     0.000     7.500     0.500
   01/08/2020 23:45:00      0.000     0.000     7.500     0.500
   01/09/2020 00:00:00      0.000     0.000     7.500     0.500
  
  
  <<< Link 149 >>>
  ----------------------------------------------------------------
                             Flow  Velocity     Depth  Capacity/
  Date        Time            CFS    ft/sec      feet   Setting 
  ----------------------------------------------------------------
   01/08/2020 14:00:00   -116.816    -0.263    17.245     0.792
   01/08/2020 14:15:00     50.229     0.113    17.227     0.791
   01/08/2020 14:30:00    -30.327    -0.068    17.199     0.790
   01/08/2020 14:45:00     -1.477    -0.003    17.214     0.791
   01/08/2020 15:00:00     -8.150    -0.018    17.230     0.791
   01/08/2020 15:15:00     -0.424    -0.001    17.201     0.790
   01/08/2020 15:30:00     -7.451    -0.017    17.196     0.790
   01/08/2020 15:45:00      0.001     0.000    17.195     0.790
   01/08/2020 16:00:00     -8.200    -0.019    17.193     0.790
   01/08/2020 16:15:00    -25.065    -0.057    17.186     0.790
   01/08/2020 16:30:00     12.973     0.029    17.202     0.790
   01/08/2020 16:45:00      7.075     0.016    17.204     0.790
   01/08/2020 17:00:00     -7.339    -0.017    17.194     0.790
   01/08/2020 17:15:00     -0.501    -0.001    17.199     0.790
   01/08/2020 17:30:00    101.002     0.227    17.298     0.794
   01/08/2020 17:45:00    -96.575    -0.217    17.242     0.792
   01/08/2020 18:00:00     32.165     0.073    17.181     0.789
   01/08/2020 18:15:00     22.434     0.050    17.244     0.792
   01/08/2020 18:30:00     -3.100    -0.007    17.199     0.790
   01/08/2020 18:45:00    -12.288    -0.028    17.215     0.791
   01/08/2020 19:00:00     -0.710    -0.002    17.212     0.791
   01/08/2020 19:15:00    -23.776    -0.054    17.208     0.790
   01/08/2020 19:30:00     -7.493    -0.017    17.177     0.789
   01/08/2020 19:45:00      5.058     0.011    17.206     0.790
   01/08/2020 20:00:00      1.734     0.004    17.199     0.790
   01/08/2020 20:15:00     -2.074    -0.005    17.183     0.789
   01/08/2020 20:30:00    -22.035    -0.050    17.229     0.791
   01/08/2020 20:45:00    -14.987    -0.034    17.234     0.792
   01/08/2020 21:00:00      9.179     0.021    17.230     0.791
   01/08/2020 21:15:00      7.107     0.016    17.254     0.792
   01/08/2020 21:30:00    -13.025    -0.029    17.196     0.790
   01/08/2020 21:45:00     11.228     0.025    17.178     0.789
   01/08/2020 22:00:00      2.779     0.006    17.191     0.790
   01/08/2020 22:15:00      0.287     0.001    17.181     0.789
   01/08/2020 22:30:00     -2.938    -0.007    17.181     0.789
   01/08/2020 22:45:00     -0.037    -0.000    17.189     0.790
   01/08/2020 23:00:00     -0.443    -0.001    17.192     0.790
   01/08/2020 23:15:00     -0.295    -0.001    17.190     0.790
   01/08/2020 23:30:00      0.144     0.000    17.189     0.790
   01/08/2020 23:45:00     -0.017    -0.000    17.191     0.790
   01/09/2020 00:00:00      4.208     0.009    17.189     0.790
  

  Analysis begun on:  Wed Dec 29 12:33:08 2021
  Analysis ended on:  Wed Dec 29 12:36:19 2021
  Total elapsed time: 00:03:11