
  EPA STORM WATER MANAGEMENT MODEL - VERSION 5.1 (Build 5.1.015)
  --------------------------------------------------------------

  WARNING 04: minimum elevation drop used for Conduit 28
  WARNING 04: minimum elevation drop used for Conduit 39
  WARNING 04: minimum elevation drop used for Conduit 43
  WARNING 04: minimum elevation drop used for Conduit 48
  WARNING 04: minimum elevation drop used for Conduit 76
  WARNING 04: minimum elevation drop used for Conduit 78
  WARNING 04: minimum elevation drop used for Conduit 80
  WARNING 04: minimum elevation drop used for Conduit 85
  WARNING 08: elevation drop exceeds length for Conduit 92
  WARNING 04: minimum elevation drop used for Conduit 147
  WARNING 02: maximum depth increased for Node 1
  WARNING 02: maximum depth increased for Node 2
  WARNING 02: maximum depth increased for Node 70
  WARNING 02: maximum depth increased for Node 72
  WARNING 02: maximum depth increased for Node 91
  
  *********************************************************
  NOTE: The summary statistics displayed in this report are
  based on results found at every computational time step,  
  not just on results from each reporting time step.
  *********************************************************
  
  ****************
  Analysis Options
  ****************
  Flow Units ............... CFS
  Process Models:
    Rainfall/Runoff ........ NO
    RDII ................... NO
    Snowmelt ............... NO
    Groundwater ............ NO
    Flow Routing ........... YES
    Ponding Allowed ........ YES
    Water Quality .......... NO
  Flow Routing Method ...... DYNWAVE
  Surcharge Method ......... EXTRAN
  Starting Date ............ 01/01/2020 00:00:00
  Ending Date .............. 01/09/2020 00:00:00
  Antecedent Dry Days ...... 0.0
  Report Time Step ......... 00:15:00
  Routing Time Step ........ 30.00 sec
  Variable Time Step ....... YES
  Maximum Trials ........... 10
  Number of Threads ........ 1
  Head Tolerance ........... 0.005000 ft
  
  
  **************************        Volume        Volume
  Flow Routing Continuity        acre-feet      10^6 gal
  **************************     ---------     ---------
  Dry Weather Inflow .......         0.000         0.000
  Wet Weather Inflow .......         0.000         0.000
  Groundwater Inflow .......         0.000         0.000
  RDII Inflow ..............         0.000         0.000
  External Inflow ..........    550892.234    179516.465
  External Outflow .........     37586.159     12248.012
  Flooding Loss ............    512666.816    167060.141
  Evaporation Loss .........         0.000         0.000
  Exfiltration Loss ........         0.000         0.000
  Initial Stored Volume ....        -0.306        -0.100
  Final Stored Volume ......       886.166       288.771
  Continuity Error (%) .....        -0.045
  
  
  *************************
  Highest Continuity Errors
  *************************
  Node 3 (13.08%)
  Node 111 (-5.89%)
  Node 110 (-5.03%)
  Node 102 (4.40%)
  Node 103 (4.17%)
  
  
  ***************************
  Time-Step Critical Elements
  ***************************
  Link 123 (907.27%)
  Link 88 (305.95%)
  Link 15 (231.70%)
  Link 6 (127.10%)
  Link 113 (48.50%)
  
  
  ********************************
  Highest Flow Instability Indexes
  ********************************
  Link 20 (121)
  Link 19 (120)
  Link 85 (119)
  Link 21 (114)
  Link 66 (111)
  
  
  *************************
  Routing Time Step Summary
  *************************
  Minimum Time Step           :     0.21 sec
  Average Time Step           :     2.66 sec
  Maximum Time Step           :    30.00 sec
  Percent in Steady State     :    94.79
  Average Iterations per Step :     8.77
  Percent Not Converging      :  1027.29
  Time Step Frequencies       :
     30.000 -  3.817 sec      :     9.03 %
      3.817 -  0.486 sec      :    90.89 %
      0.486 -  0.062 sec      :     0.08 %
      0.062 -  0.008 sec      :     0.00 %
      0.008 -  0.001 sec      :     0.00 %
  
  
  ******************
  Node Depth Summary
  ******************
  
  ---------------------------------------------------------------------------------
                                 Average  Maximum  Maximum  Time of Max    Reported
                                   Depth    Depth      HGL   Occurrence   Max Depth
  Node                 Type         Feet     Feet     Feet  days hr:min        Feet
  ---------------------------------------------------------------------------------
  1                    JUNCTION     0.00     0.00    10.01     7  14:00        0.00
  2                    JUNCTION     0.00     0.00     8.99     7  14:00        0.00
  3                    JUNCTION    11.81    11.81     8.59     7  16:14       11.81
  4                    JUNCTION    10.15    10.15     8.59     7  21:42       10.15
  5                    JUNCTION     0.00     0.00     8.59     7  16:11        0.00
  6                    JUNCTION     4.57     4.64     6.31     7  16:17        4.61
  7                    JUNCTION     8.50     8.58     6.32     7  16:16        8.54
  8                    JUNCTION    54.23    54.53     6.54     7  19:45       54.30
  9                    JUNCTION    54.19    54.52     6.56     7  19:45       54.24
  10                   JUNCTION    82.11    82.39     6.52     7  19:45       82.17
  11                   JUNCTION    92.05    92.35     6.54     7  19:46       92.10
  12                   JUNCTION    24.67    25.03     6.60     7  19:46       24.72
  13                   JUNCTION    18.04    18.39     6.59     7  19:46       18.08
  14                   JUNCTION    17.93    18.26     6.57     7  14:39       17.97
  15                   JUNCTION    30.72    31.06     6.58     7  19:46       30.78
  16                   JUNCTION    14.16    14.46     6.54     7  19:46       14.21
  19                   JUNCTION    25.70    26.03     7.23     7  20:47       25.79
  20                   JUNCTION    30.70    30.96     7.16     7  20:47       30.78
  21                   JUNCTION    27.90    28.14     7.14     7  20:47       27.98
  22                   JUNCTION    19.40    19.53     7.03     7  20:47       19.47
  23                   JUNCTION    12.10    12.13     6.93     7  16:33       12.12
  24                   JUNCTION     0.40     0.43     6.93     7  16:49        0.42
  25                   JUNCTION     0.21     0.21     6.51     7  16:51        0.21
  26                   JUNCTION    17.84    17.93     6.33     7  16:07       17.87
  27                   JUNCTION    18.14    18.20     6.30     7  16:07       18.18
  28                   JUNCTION    14.24    14.27     6.27     7  16:07       14.27
  29                   JUNCTION    14.24    14.27     6.27     7  16:14       14.26
  30                   JUNCTION    27.94    27.98     6.28     7  14:46       27.97
  31                   JUNCTION    28.04    28.08     6.28     7  14:46       28.05
  32                   JUNCTION    53.84    53.96     6.36     7  21:35       53.87
  33                   JUNCTION    50.74    50.83     6.33     7  16:12       50.79
  34                   JUNCTION    17.94    18.01     6.31     7  16:12       17.97
  35                   JUNCTION     0.00     0.00    21.17     0  00:00        0.00
  36                   JUNCTION     1.60     1.64     6.94     7  16:49        1.62
  37                   JUNCTION     1.50     1.53     6.93     7  16:48        1.51
  38                   JUNCTION    19.90    19.92     6.92     7  18:18       19.91
  39                   JUNCTION    20.20    20.25     6.95     7  22:55       20.23
  40                   JUNCTION    41.10    41.28     7.08     7  20:47       41.15
  41                   JUNCTION    41.10    41.31     7.11     7  20:47       41.13
  42                   JUNCTION    68.40    68.63     7.13     7  20:47       68.44
  43                   JUNCTION    71.80    71.95     7.05     7  20:47       71.85
  44                   JUNCTION    33.10    33.17     6.97     7  21:31       33.16
  45                   JUNCTION    33.10    33.17     6.97     7  16:27       33.16
  46                   JUNCTION    23.30    23.47     7.07     7  20:46       23.38
  47                   JUNCTION    23.40    23.56     7.06     7  20:59       23.48
  48                   JUNCTION    34.70    34.86     7.06     7  20:59       34.78
  49                   JUNCTION    21.20    21.37     7.07     7  20:59       21.30
  50                   JUNCTION    21.20    21.35     7.05     7  20:59       21.29
  51                   JUNCTION    17.40    17.54     7.04     7  20:47       17.49
  52                   JUNCTION     3.90     4.00     7.00     7  17:12        3.98
  53                   JUNCTION     0.00     0.00   -22.10     0  00:00        0.00
  54                   JUNCTION     0.00     0.00    -0.90     0  00:00        0.00
  55                   JUNCTION     0.00     0.00     0.00     0  00:00        0.00
  56                   JUNCTION     0.00     0.00   -13.70     0  00:00        0.00
  57                   JUNCTION     0.00     0.00   -13.20     0  00:00        0.00
  58                   JUNCTION     0.00     0.00   -20.50     0  00:00        0.00
  59                   JUNCTION     0.00     0.00   -20.60     0  00:00        0.00
  60                   JUNCTION     0.00     0.00     7.19     0  00:00        0.00
  61                   JUNCTION     0.00     0.00    12.80     0  00:00        0.00
  62                   JUNCTION     0.00     0.00    15.00     0  00:00        0.00
  63                   JUNCTION     0.00     0.00    22.00     0  00:00        0.00
  64                   JUNCTION     0.00     0.00    18.00     0  00:00        0.00
  65                   JUNCTION     0.00     0.00    11.00     0  00:00        0.00
  66                   JUNCTION     9.24     9.28     6.28     7  16:01        9.26
  67                   JUNCTION    11.94    11.98     6.28     7  16:13       11.96
  70                   JUNCTION    32.24    32.29     6.29     7  16:11       32.28
  71                   JUNCTION    17.43    17.48     6.29     7  16:12       17.46
  72                   JUNCTION     0.00     0.00   -16.30     0  00:00        0.00
  73                   JUNCTION     0.00     0.00   -17.00     0  00:00        0.00
  74                   JUNCTION     0.00     0.00    -5.00     0  00:00        0.00
  75                   JUNCTION     0.00     0.00   -11.90     0  00:00        0.00
  76                   JUNCTION     0.00     0.00    -3.00     0  00:00        0.00
  77                   JUNCTION     0.00     0.00    -6.25     0  00:00        0.00
  78                   JUNCTION     0.00     0.00   -19.70     0  00:00        0.00
  79                   JUNCTION     0.00     0.00   -19.70     0  00:00        0.00
  80                   JUNCTION     0.00     0.00   -12.60     0  00:00        0.00
  81                   JUNCTION     0.00     0.00   -12.60     0  00:00        0.00
  82                   JUNCTION     0.00     0.00    -5.00     0  00:00        0.00
  83                   JUNCTION    23.00    23.17     7.07     7  20:47       23.03
  84                   JUNCTION    23.00    23.16     7.06     7  20:47       23.05
  85                   JUNCTION    50.60    50.72     7.02     7  21:35       50.65
  86                   JUNCTION    58.20    58.30     7.00     7  21:35       58.23
  87                   JUNCTION    46.90    46.95     6.95     7  18:15       46.93
  88                   JUNCTION    43.90    43.95     6.95     7  18:05       43.94
  89                   JUNCTION    43.90    43.98     6.98     7  18:05       43.95
  90                   JUNCTION    29.90    29.99     6.99     7  18:05       29.95
  91                   JUNCTION    11.70    11.75     6.95     7  16:44       11.75
  92                   JUNCTION     7.70     7.76     6.96     7  20:20        7.75
  18                   JUNCTION     0.00     0.00   -16.30     0  00:00        0.00
  100                  JUNCTION     0.00     0.00   -28.62     0  00:00        0.00
  102                  JUNCTION    31.07    35.00     9.36     7  14:38       32.81
  103                  JUNCTION    27.83    35.00    12.62     7  14:38       29.61
  104                  JUNCTION    27.82    35.00    12.63     7  14:38       29.38
  105                  JUNCTION    25.89    33.00    12.56     7  14:38       27.02
  106                  JUNCTION    17.58    33.00    20.88     7  14:38       18.60
  107                  JUNCTION    20.36    35.00    20.11     7  16:14       21.54
  108                  JUNCTION    12.26    27.00    20.20     7  14:38       18.04
  109                  JUNCTION    26.22    41.00    20.12     7  18:05       28.87
  110                  JUNCTION    26.23    41.00    20.09     7  14:38       29.63
  111                  JUNCTION    26.17    41.00    20.02     7  18:05       31.23
  112                  JUNCTION    26.17    41.00    20.00     7  14:39       31.19
  113                  JUNCTION    86.03   101.00    20.20     7  14:38       90.32
  114                  JUNCTION    88.43   105.00    21.82     7  14:38       92.31
  115                  JUNCTION    77.02    92.00    20.25     7  14:38       80.69
  116                  JUNCTION    77.14    92.00    20.13     7  14:38       80.64
  117                  JUNCTION   103.80   116.07    17.57     7  19:45      105.77
  118                  JUNCTION    28.32    31.45     8.47     7  14:38       29.18
  119                  JUNCTION    25.50    26.68     6.53     7  14:48       26.29
  120                  JUNCTION    22.77    23.84     6.42     7  14:20       23.68
  121                  JUNCTION     8.54     9.69     6.50     7  14:46        9.55
  122                  JUNCTION     8.78     9.87     6.44     7  14:21        9.62
  123                  JUNCTION    15.99    17.24     6.60     7  14:26       17.16
  124                  JUNCTION    11.85    13.13     6.63     7  14:25       13.04
  125                  JUNCTION    12.55    13.83     6.63     7  14:26       13.74
  126                  JUNCTION    24.73    26.17     6.79     7  14:03       25.90
  127                  JUNCTION    16.56    18.07     6.86     7  14:02       17.79
  128                  JUNCTION    17.05    18.59     6.89     7  14:02       18.28
  129                  JUNCTION    19.67    21.25     6.93     7  14:03       20.92
  130                  JUNCTION    11.04    12.61     6.92     7  14:03       12.28
  131                  JUNCTION     0.00     0.00    31.65     0  00:00        0.00
  132                  JUNCTION     0.00     0.00    31.36     0  00:00        0.00
  133                  JUNCTION     0.00     0.00    40.24     0  00:00        0.00
  134                  JUNCTION     0.00     0.00    44.72     0  00:00        0.00
  135                  JUNCTION     0.00     0.00    44.62     0  00:00        0.00
  136                  JUNCTION     0.00     0.00    44.35     0  00:00        0.00
  137                  JUNCTION     0.00     0.00    34.51     0  00:00        0.00
  138                  JUNCTION     0.00     0.00    52.23     0  00:00        0.00
  139                  JUNCTION     0.00     0.00    49.93     0  00:00        0.00
  140                  JUNCTION     0.00     0.00    45.20     0  00:00        0.00
  141                  JUNCTION     0.00     0.00    49.13     0  00:00        0.00
  142                  JUNCTION     0.00     0.00    40.05     0  00:00        0.00
  143                  JUNCTION     0.00     0.00    39.90     0  00:00        0.00
  148                  JUNCTION     0.00     0.00   -26.26     0  00:00        0.00
  68                   OUTFALL      0.00     0.00     6.50     0  00:00        0.00
  69                   OUTFALL      0.00     0.00     5.00     0  00:00        0.00
  93                   OUTFALL      0.00     0.00    13.89     0  00:00        0.00
  94                   OUTFALL      0.00     0.00    10.51     0  00:00        0.00
  95                   OUTFALL      0.09     0.09    12.79     8  00:00        0.09
  96                   OUTFALL      0.00     0.00    31.60     0  00:00        0.00
  97                   OUTFALL      0.00     0.00    17.55     0  00:00        0.00
  98                   OUTFALL      0.00     0.00    11.00     0  00:00        0.00
  99                   OUTFALL      0.14     0.40     6.50     7  16:11        0.29
  101                  OUTFALL      0.00     0.00    11.89     0  00:00        0.00
  144                  OUTFALL      0.00     0.00    32.22     0  00:00        0.00
  145                  OUTFALL      0.00     0.00     8.00     0  00:00        0.00
  146                  OUTFALL      0.00     0.00    39.90     0  00:00        0.00
  147                  OUTFALL      0.00     0.00    15.00     0  00:00        0.00
  
  
  *******************
  Node Inflow Summary
  *******************
  
  -------------------------------------------------------------------------------------------------
                                  Maximum  Maximum                  Lateral       Total        Flow
                                  Lateral    Total  Time of Max      Inflow      Inflow     Balance
                                   Inflow   Inflow   Occurrence      Volume      Volume       Error
  Node                 Type           CFS      CFS  days hr:min    10^6 gal    10^6 gal     Percent
  -------------------------------------------------------------------------------------------------
  1                    JUNCTION      0.00     0.00     0  00:00           0        1.01       0.001
  2                    JUNCTION      0.00     0.00     0  00:00           0          12       0.031
  3                    JUNCTION      0.00     0.00     7  21:42           0         105      15.046
  4                    JUNCTION      0.00     0.01     7  21:43           0         131       0.924
  5                    JUNCTION      0.00     0.00     7  16:15           0         108       0.574
  6                    JUNCTION      0.00    42.53     7  16:15           0    2.13e+03       0.033
  7                    JUNCTION      0.00    34.46     7  16:16           0    2.02e+03      -0.112
  8                    JUNCTION      0.00    31.35     7  15:57           0    2.14e+03       0.203
  9                    JUNCTION      0.00    29.74     7  19:45           0    2.22e+03       0.161
  10                   JUNCTION      0.00    23.99     7  16:12           0     2.5e+03       0.183
  11                   JUNCTION      0.00    23.99     7  16:12           0    2.79e+03       0.178
  12                   JUNCTION      0.00    24.04     7  16:12           0    2.78e+03       0.099
  13                   JUNCTION      0.00    26.82     7  16:10           0    2.76e+03       0.076
  14                   JUNCTION      0.00    29.63     7  16:11           0    2.76e+03       0.127
  15                   JUNCTION      0.00    43.12     7  16:11           0    2.75e+03       0.119
  16                   JUNCTION      0.00    67.95     7  19:45           0    5.22e+04       0.001
  19                   JUNCTION      0.00     3.84     7  22:55           0    6.98e+04       0.006
  20                   JUNCTION      0.00    11.42     7  17:05           0         976       0.497
  21                   JUNCTION      0.00    52.40     7  16:03           0         976       0.352
  22                   JUNCTION      0.00    19.14     7  16:11           0         876       0.387
  23                   JUNCTION      0.00     9.54     7  14:02           0         901       0.145
  24                   JUNCTION      0.00    22.85     7  14:43           0    1.81e+03      -0.021
  25                   JUNCTION      0.00    10.57     7  16:49           0    1.22e+03       0.087
  26                   JUNCTION      0.00    55.30     7  16:15           0    2.42e+03       0.148
  27                   JUNCTION      0.00    48.54     7  16:14           0    1.36e+03       0.062
  28                   JUNCTION      0.00    56.96     7  16:14           0    1.41e+03       0.109
  29                   JUNCTION      0.00    57.80     7  18:15           0     1.4e+03       0.117
  30                   JUNCTION      0.00    64.25     7  14:49           0    1.33e+03       0.566
  31                   JUNCTION      0.00    60.25     7  14:52           0    6.16e+03       0.102
  32                   JUNCTION      0.00    15.45     7  19:59           0    6.05e+03       0.048
  33                   JUNCTION      0.00    15.56     7  19:59           0    6.05e+03       0.048
  34                   JUNCTION      0.00    15.43     7  19:59           0    8.02e+03       0.035
  35                   JUNCTION      0.00     0.00     0  00:00           0           0       0.000 gal
  36                   JUNCTION      0.00    12.85     7  21:20           0         131       0.370
  37                   JUNCTION      0.00    16.16     7  16:46           0         246       0.157
  38                   JUNCTION      0.00    41.30     7  20:33           0    1.88e+03       0.324
  39                   JUNCTION      0.00    34.46     7  20:33           0    1.77e+03       0.176
  40                   JUNCTION      0.00    37.14     7  20:33           0    1.85e+03       0.631
  41                   JUNCTION      0.00    19.45     7  20:59           0    1.19e+03       0.257
  42                   JUNCTION      0.00    17.33     7  14:12           0    1.18e+03       0.257
  43                   JUNCTION      0.00    17.44     7  14:12           0    1.25e+03       0.195
  44                   JUNCTION      0.00    23.72     7  17:14           0    1.25e+03       0.227
  45                   JUNCTION      0.00    21.73     7  17:07           0    1.24e+03       0.359
  46                   JUNCTION      0.00    14.63     7  19:32           0    1.23e+03       0.276
  47                   JUNCTION      0.00    17.32     7  19:31           0    1.23e+03       0.155
  48                   JUNCTION      0.00    14.58     7  17:53           0    1.23e+03       0.161
  49                   JUNCTION      0.00    14.27     7  19:32           0    1.22e+03       0.235
  50                   JUNCTION      0.00    19.17     7  17:53           0    1.22e+03       0.250
  51                   JUNCTION      0.00    20.57     7  19:32           0    6.73e+03       0.033
  52                   JUNCTION      0.00    16.87     7  17:54           0    2.28e+04       0.002
  53                   JUNCTION      0.00     0.00     0  00:00           0           0       0.000 gal
  54                   JUNCTION      0.00     0.00     0  00:00           0           0       0.000 gal
  55                   JUNCTION      0.00     0.00     0  00:00           0           0       0.000 gal
  56                   JUNCTION      0.00     0.00     0  00:00           0           0       0.000 gal
  57                   JUNCTION      0.00     0.00     0  00:00           0           0       0.000 gal
  58                   JUNCTION      0.00     0.00     0  00:00           0           0       0.000 gal
  59                   JUNCTION      0.00     0.00     0  00:00           0           0       0.000 gal
  60                   JUNCTION      0.00     0.00     0  00:00           0           0       0.000 gal
  61                   JUNCTION      0.00     0.00     0  00:00           0           0       0.000 gal
  62                   JUNCTION      0.00     0.00     0  00:00           0           0       0.000 gal
  63                   JUNCTION      0.00     0.00     0  00:00           0           0       0.000 gal
  64                   JUNCTION      0.00     0.00     0  00:00           0           0       0.000 gal
  65                   JUNCTION      0.00     0.00     0  00:00           0           0       0.000 gal
  66                   JUNCTION      0.00    26.30     7  16:00           0         205       1.115
  67                   JUNCTION      0.00    40.55     7  16:00           0         762       0.382
  70                   JUNCTION      0.00    26.80     7  20:48           0    5.59e+03       0.087
  71                   JUNCTION      0.00    23.93     7  16:11           0         658       0.396
  72                   JUNCTION      0.00     0.00     0  00:00           0           0       0.000 gal
  73                   JUNCTION      0.00     0.00     0  00:00           0           0       0.000 gal
  74                   JUNCTION      0.00     0.00     0  00:00           0           0       0.000 gal
  75                   JUNCTION      0.00     0.00     0  00:00           0           0       0.000 gal
  76                   JUNCTION      0.00     0.00     0  00:00           0           0       0.000 gal
  77                   JUNCTION      0.00     0.00     0  00:00           0           0       0.000 gal
  78                   JUNCTION      0.00     0.00     0  00:00           0           0       0.000 gal
  79                   JUNCTION      0.00     0.00     0  00:00           0           0       0.000 gal
  80                   JUNCTION      0.00     0.00     0  00:00           0           0       0.000 gal
  81                   JUNCTION      0.00     0.00     0  00:00           0           0       0.000 gal
  82                   JUNCTION      0.00     0.00     0  00:00           0           0       0.000 gal
  83                   JUNCTION      0.00    39.36     7  20:47           0         748       1.194
  84                   JUNCTION      0.00    28.80     7  20:23           0         752       0.546
  85                   JUNCTION      0.00    34.48     7  20:47           0         736       0.212
  86                   JUNCTION      0.00    29.45     7  20:47           0         737       0.201
  87                   JUNCTION      0.00    65.64     7  18:06           0         739       0.852
  88                   JUNCTION      0.00    50.42     7  18:13           0         757       0.670
  89                   JUNCTION      0.00    24.84     7  20:22           0    2.78e+03       0.105
  90                   JUNCTION      0.00    24.89     7  20:22           0    9.89e+03       0.033
  91                   JUNCTION      0.00    23.05     7  20:35           0    2.72e+04       0.003
  92                   JUNCTION      0.00    12.80     7  20:28           0    5.48e+03       0.014
  18                   JUNCTION      0.00     0.00     0  00:00           0           0       0.000 gal
  100                  JUNCTION      0.00     0.00     0  00:00           0           0       0.000 gal
  102                  JUNCTION      0.00  1760.57     7  16:12           0         126       4.598
  103                  JUNCTION      0.00  1949.59     7  19:51           0         243       4.352
  104                  JUNCTION      0.00  2514.05     7  16:17           0         396       1.393
  105                  JUNCTION      0.00  2713.73     7  16:12           0         443       1.655
  106                  JUNCTION      0.00  5268.64     7  16:12           0         697       0.910
  107                  JUNCTION      0.00  5316.85     7  16:12           0         936       0.775
  108                  JUNCTION      0.00 11673.11     7  14:38           0    1.13e+03       0.480
  109                  JUNCTION      0.00 16458.93     7  19:46           0    1.37e+03      -0.022
  110                  JUNCTION      0.00 32245.60     7  21:42           0    1.39e+03      -4.786
  111                  JUNCTION      0.00 27266.29     7  18:05           0       1e+03      -5.563
  112                  JUNCTION      0.00 23959.15     7  20:59           0         563       1.081
  113                  JUNCTION      0.00  2735.41     7  21:42           0         497       1.442
  114                  JUNCTION      0.00  2011.72     7  21:42           0         498       1.344
  115                  JUNCTION      0.00  1678.16     7  21:42           0         504       2.141
  116                  JUNCTION      0.00  1525.27     7  16:12           0         512       2.485
  117                  JUNCTION      0.00  1536.43     7  16:12           0         520       1.968
  118                  JUNCTION      0.00  1538.63     7  16:12           0         528       1.389
  119                  JUNCTION      0.00  1176.24     7  16:13           0         586       0.814
  120                  JUNCTION      0.00  1365.55     7  16:13           0         587       0.655
  121                  JUNCTION      0.00  1176.80     7  16:13           0         539       0.108
  122                  JUNCTION      0.00  1126.95     7  16:15           0         525       0.539
  123                  JUNCTION      0.00   556.56     7  16:16           0         494       1.074
  124                  JUNCTION      0.00   539.83     7  16:25           0         468       0.463
  125                  JUNCTION      0.00   597.94     7  16:25           0         402       1.391
  126                  JUNCTION      0.00   224.47     7  16:24           0         598       1.222
  127                  JUNCTION      0.00   224.61     7  16:24           0         346       0.868
  128                  JUNCTION      0.00    89.37     7  16:24           0         333       0.575
  129                  JUNCTION      0.00    85.87     7  16:24           0         322       0.287
  130                  JUNCTION      0.00    85.76     7  16:24           0         297       0.275
  131                  JUNCTION      0.00     0.00     0  00:00           0           0       0.000 gal
  132                  JUNCTION      0.00     0.00     0  00:00           0           0       0.000 gal
  133                  JUNCTION      0.00     0.00     0  00:00           0           0       0.000 gal
  134                  JUNCTION      0.00     0.00     0  00:00           0           0       0.000 gal
  135                  JUNCTION      0.00     0.00     0  00:00           0           0       0.000 gal
  136                  JUNCTION      0.00     0.00     0  00:00           0           0       0.000 gal
  137                  JUNCTION      0.00     0.00     0  00:00           0           0       0.000 gal
  138                  JUNCTION      0.00     0.00     0  00:00           0           0       0.000 gal
  139                  JUNCTION      0.00     0.00     0  00:00           0           0       0.000 gal
  140                  JUNCTION      0.00     0.00     0  00:00           0           0       0.000 gal
  141                  JUNCTION      0.00     0.00     0  00:00           0           0       0.000 gal
  142                  JUNCTION      0.00     0.00     0  00:00           0           0       0.000 gal
  143                  JUNCTION      0.00     0.00     0  00:00           0           0       0.000 gal
  148                  JUNCTION      0.00     0.00     0  00:00           0           0       0.000 gal
  68                   OUTFALL       0.00     0.00     0  00:00           0           0       0.000 gal
  69                   OUTFALL       0.00     0.00     0  00:00           0           0       0.000 gal
  93                   OUTFALL       0.00     0.00     0  00:00           0           0       0.000 gal
  94                   OUTFALL       0.00     0.00     0  00:00           0    3.38e+03       0.000
  95                   OUTFALL       0.00     9.79     8  00:00           0    5.46e+03       0.000
  96                   OUTFALL       0.00     0.00     0  00:00           0           0       0.000 gal
  97                   OUTFALL       0.00     0.00     0  00:00           0           0       0.000 gal
  98                   OUTFALL       0.00     0.00     0  00:00           0         748       0.000
  99                   OUTFALL       0.00    62.92     7  16:11           0    2.54e+03       0.000
  101                  OUTFALL       0.00     0.00     0  00:00           0           0       0.000 gal
  144                  OUTFALL       0.00     0.00     0  00:00           0           0       0.000 gal
  145                  OUTFALL       0.00     0.00     0  00:00           0         156       0.000
  146                  OUTFALL       0.00     0.00     0  00:00           0           0       0.000 gal
  147                  OUTFALL       0.00     0.00     0  00:00           0           0       0.000 gal
  
  
  **********************
  Node Surcharge Summary
  **********************
  
  Surcharging occurs when water rises above the top of the highest conduit.
  ---------------------------------------------------------------------
                                               Max. Height   Min. Depth
                                   Hours       Above Crown    Below Rim
  Node                 Type      Surcharged           Feet         Feet
  ---------------------------------------------------------------------
  8                    JUNCTION       10.00         28.532        5.468
  9                    JUNCTION       10.00         28.518        5.482
  10                   JUNCTION       10.00         62.885        2.615
  11                   JUNCTION       10.00         72.847        2.653
  12                   JUNCTION       10.00          5.530        4.970
  13                   JUNCTION       10.00          1.393        6.607
  14                   JUNCTION       10.00          1.264        6.736
  15                   JUNCTION       10.00         14.060        8.940
  19                   JUNCTION       10.00         10.727        3.973
  20                   JUNCTION       10.00         12.963        9.037
  21                   JUNCTION       10.00         10.141       11.859
  22                   JUNCTION       10.00          3.533       20.467
  32                   JUNCTION       10.00         37.859       26.041
  33                   JUNCTION       10.00         34.733       29.167
  39                   JUNCTION       10.00          0.950       19.750
  40                   JUNCTION       10.00         21.982       18.718
  41                   JUNCTION       10.00         24.314       18.686
  42                   JUNCTION       10.00         51.634       11.366
  43                   JUNCTION       10.00         54.949        8.051
  46                   JUNCTION       10.00          6.775       26.525
  47                   JUNCTION       10.00          6.864       26.436
  48                   JUNCTION       10.00         19.162       25.138
  49                   JUNCTION       10.00          5.167       28.633
  50                   JUNCTION       10.00          5.154       28.646
  51                   JUNCTION       10.00          1.335       12.465
  83                   JUNCTION       10.00          8.172       11.828
  84                   JUNCTION       10.00          6.561       11.839
  85                   JUNCTION       10.00         34.124       19.276
  86                   JUNCTION       10.00         41.698       11.702
  89                   JUNCTION       10.00         27.380        6.020
  90                   JUNCTION       10.00         13.386       10.014
  102                  JUNCTION       10.00         15.330        0.000
  103                  JUNCTION        8.20          8.000        0.000
  104                  JUNCTION        8.45          8.000        0.000
  105                  JUNCTION       10.00         13.330        0.000
  106                  JUNCTION        0.07         13.330        0.000
  107                  JUNCTION        8.68         15.330        0.000
  108                  JUNCTION        0.01          7.330        0.000
  109                  JUNCTION        9.98         21.330        0.000
  110                  JUNCTION        0.04          5.000        0.000
  111                  JUNCTION        0.02          5.000        0.000
  112                  JUNCTION        9.90         21.000        0.000
  113                  JUNCTION       10.00         81.000        0.000
  114                  JUNCTION       10.00         85.000        0.000
  115                  JUNCTION       10.00         52.000        0.000
  116                  JUNCTION       10.00         52.000        0.000
  117                  JUNCTION       10.00         96.065        3.935
  118                  JUNCTION       10.00         11.455       13.545
  126                  JUNCTION       10.00          8.274        8.826
  127                  JUNCTION        0.06          0.174        6.926
  128                  JUNCTION       10.00          3.589        3.411
  129                  JUNCTION       10.00          6.248        3.752
  
  
  *********************
  Node Flooding Summary
  *********************
  
  Flooding refers to all water that overflows a node, whether it ponds or not.
  --------------------------------------------------------------------------
                                                             Total   Maximum
                                 Maximum   Time of Max       Flood    Ponded
                        Hours       Rate    Occurrence      Volume     Depth
  Node                 Flooded       CFS   days hr:min    10^6 gal      Feet
  --------------------------------------------------------------------------
  102                     0.20   1760.50      7  16:12       3.332     0.000
  103                     0.03   1101.08      7  16:17       0.420     0.000
  104                     0.03   1451.35      7  16:17       0.300     0.000
  105                     0.03   1444.38      7  16:12       0.647     0.000
  106                     0.01   4760.17      7  16:12       0.730     0.000
  107                     0.01   2146.41      7  16:14       0.092     0.000
  108                     0.01   9036.29      7  14:38       0.639     0.000
  109                     0.01  14951.19      7  19:46       0.553     0.000
  110                     0.03  18286.57      7  21:42       9.219     0.000
  111                     0.02  13945.23      7  18:05       6.513     0.000
  112                     0.01  12426.14      7  20:59       1.240     0.000
  113                     0.01   1998.45      7  18:05       0.275     0.000
  114                     0.01    672.03      7  21:42       0.028     0.000
  115                     0.01    909.24      7  14:38       0.181     0.000
  116                     0.01    375.79      7  21:42       0.054     0.000
  
  
  ***********************
  Outfall Loading Summary
  ***********************
  
  -----------------------------------------------------------
                         Flow       Avg       Max       Total
                         Freq      Flow      Flow      Volume
  Outfall Node           Pcnt       CFS       CFS    10^6 gal
  -----------------------------------------------------------
  68                     0.00      0.00      0.00       0.000
  69                     0.00      0.00      0.00       0.000
  93                     0.00      0.00      0.00       0.000
  94                     0.00      0.00      0.00    3380.783
  95                   100.00      9.73      9.79    5455.265
  96                     0.00      0.00      0.00       0.000
  97                     0.00      0.00      0.00       0.000
  98                     0.00      0.00      0.00     748.015
  99                    99.91     11.31     62.92    2540.246
  101                    0.00      0.00      0.00       0.000
  144                    0.00      0.00      0.00       0.000
  145                    0.00      0.00      0.00     156.157
  146                    0.00      0.00      0.00       0.000
  147                    0.00      0.00      0.00       0.000
  -----------------------------------------------------------
  System                14.28     21.04     72.61   12280.466
  
  
  ********************
  Link Flow Summary
  ********************
  
  -----------------------------------------------------------------------------
                                 Maximum  Time of Max   Maximum    Max/    Max/
                                  |Flow|   Occurrence   |Veloc|    Full    Full
  Link                 Type          CFS  days hr:min    ft/sec    Flow   Depth
  -----------------------------------------------------------------------------
  1                    CONDUIT      0.00     0  00:00      0.00    0.00    0.00
  2                    CONDUIT      0.00     0  00:00      0.00    0.00    0.37
  3                    CONDUIT      0.01     7  21:43      0.00    0.00    0.78
  4                    CONDUIT      0.00     7  16:15      0.00    0.00    0.32
  5                    CONDUIT      0.00     7  16:11      0.00    0.00    0.15
  6                    CONDUIT     34.46     7  16:16      0.16    0.00    0.41
  7                    CONDUIT     25.17     7  15:57      0.08    0.00    0.71
  8                    CONDUIT     31.35     7  15:57      0.04    0.01    1.00
  9                    CONDUIT     23.99     7  16:12      0.07    0.00    1.00
  10                   CONDUIT     23.99     7  16:12      0.07    0.00    1.00
  11                   CONDUIT     24.04     7  16:12      0.07    0.00    1.00
  12                   CONDUIT     26.82     7  16:10      0.05    0.00    1.00
  13                   CONDUIT     29.63     7  16:11      0.06    0.02    1.00
  14                   CONDUIT     43.12     7  16:11      0.09    0.00    1.00
  15                   CONDUIT     47.23     7  16:11      0.11    0.00    0.93
  19                   CONDUIT      5.41     7  22:46      0.01    0.00    1.00
  20                   CONDUIT     52.40     7  16:03      0.06    0.00    1.00
  21                   CONDUIT     16.79     7  20:47      0.03    0.00    1.00
  22                   CONDUIT     14.76     7  16:03      0.03    0.00    0.90
  23                   CONDUIT      8.90     7  21:13      0.07    0.00    0.33
  24                   CONDUIT     10.57     7  16:49      0.81    0.00    0.02
  25                   CONDUIT     10.10     7  16:51      0.04    0.00    0.30
  26                   CONDUIT     45.58     7  16:15      0.11    0.02    0.77
  27                   CONDUIT     48.54     7  16:14      0.07    0.00    0.85
  28                   CONDUIT     56.96     7  16:14      0.07    0.14    0.79
  29                   CONDUIT     25.11     7  18:15      0.06    0.00    0.94
  30                   CONDUIT     64.25     7  14:49      0.04    0.01    0.93
  31                   CONDUIT     15.45     7  19:59      0.04    0.00    1.00
  32                   CONDUIT     15.56     7  19:59      0.04    0.00    1.00
  33                   CONDUIT     15.43     7  19:59      0.04    0.00    1.00
  34                   CONDUIT      0.00     0  00:00      0.00    0.00    0.05
  35                   CONDUIT     14.10     7  16:39      0.15    0.00    0.06
  36                   CONDUIT     16.86     7  19:55      0.06    0.00    0.36
  37                   CONDUIT     41.30     7  20:33      0.04    0.01    1.00
  38                   CONDUIT     34.46     7  20:33      0.08    0.00    1.00
  39                   CONDUIT     23.13     7  14:26      0.03    0.06    1.00
  40                   CONDUIT     17.43     7  14:12      0.04    0.00    1.00
  41                   CONDUIT     17.33     7  14:12      0.08    0.01    1.00
  42                   CONDUIT     17.44     7  14:12      0.08    0.00    1.00
  43                   CONDUIT     23.72     7  17:14      0.04    0.14    0.98
  44                   CONDUIT     14.70     7  19:31      0.04    0.00    1.00
  45                   CONDUIT     14.63     7  19:32      0.04    0.02    1.00
  46                   CONDUIT     17.32     7  19:31      0.05    0.00    1.00
  47                   CONDUIT     13.95     7  19:32      0.04    0.00    1.00
  48                   CONDUIT     19.17     7  17:53      0.02    0.06    1.00
  49                   CONDUIT     15.56     7  19:32      0.04    0.00    1.00
  50                   CONDUIT     20.57     7  19:32      0.06    0.00    0.62
  51                   CONDUIT      0.00     0  00:00      0.00    0.00    0.00
  52                   CONDUIT      0.00     0  00:00      0.00    0.00    0.00
  53                   CONDUIT      0.00     0  00:00      0.00    0.00    0.00
  54                   CONDUIT      0.00     0  00:00      0.00    0.00    0.00
  55                   CONDUIT      0.00     0  00:00      0.00    0.00    0.00
  56                   CONDUIT      0.00     0  00:00      0.00    0.00    0.00
  57                   CONDUIT      0.00     0  00:00      0.00    0.00    0.00
  58                   CONDUIT      0.00     0  00:00      0.00    0.00    0.00
  59                   CONDUIT      0.00     0  00:00      0.00    0.00    0.00
  60                   CONDUIT      0.00     0  00:00      0.00    0.00    0.00
  61                   CONDUIT      0.00     0  00:00      0.00    0.00    0.00
  62                   CONDUIT      0.00     0  00:00      0.00    0.00    0.00
  63                   CONDUIT      0.00     0  00:00      0.00    0.00    0.30
  64                   CONDUIT     26.30     7  16:00      0.03    0.00    0.63
  65                   CONDUIT     24.81     7  16:09      0.06    0.00    0.85
  67                   CONDUIT     21.61     7  18:11      0.04    0.00    0.86
  68                   CONDUIT     24.87     7  20:50      0.03    0.00    1.00
  69                   CONDUIT      0.00     0  00:00      0.00    0.00    0.00
  70                   CONDUIT      0.00     0  00:00      0.00    0.00    0.00
  71                   CONDUIT      0.00     0  00:00      0.00    0.00    0.00
  72                   CONDUIT      0.00     0  00:00      0.00    0.00    0.00
  73                   CONDUIT      0.00     0  00:00      0.00    0.00    0.00
  74                   CONDUIT      0.00     0  00:00      0.00    0.00    0.00
  75                   CONDUIT      0.00     0  00:00      0.00    0.00    0.00
  76                   CONDUIT      0.00     0  00:00      0.00    0.00    0.00
  77                   CONDUIT      0.00     0  00:00      0.00    0.00    0.00
  78                   CONDUIT      0.00     0  00:00      0.00    0.00    0.00
  79                   CONDUIT      0.00     0  00:00      0.00    0.00    0.00
  80                   CONDUIT     39.36     7  20:47      0.03    0.07    1.00
  81                   CONDUIT     28.80     7  20:23      0.06    0.00    1.00
  82                   CONDUIT     34.48     7  20:47      0.07    0.00    1.00
  83                   CONDUIT     29.45     7  20:47      0.06    0.00    1.00
  84                   CONDUIT     65.64     7  18:06      0.04    0.00    0.91
  85                   CONDUIT     28.90     7  21:42      0.06    0.16    1.00
  86                   CONDUIT     24.84     7  20:22      0.05    0.00    1.00
  87                   CONDUIT     24.89     7  20:22      0.06    0.00    0.85
  88                   CONDUIT     23.05     7  20:35      0.16    0.00    0.24
  89                   CONDUIT      0.00     0  00:00      0.00    0.00    0.11
  90                   CONDUIT     22.85     7  14:43      0.06    0.00    0.51
  91                   CONDUIT     29.27     7  17:32      0.02    0.00    1.00
  92                   CONDUIT      0.00     0  00:00      0.00    0.00    0.50
  93                   CONDUIT     42.53     7  16:15      0.08    0.00    0.65
  94                   CONDUIT     40.55     7  16:00      0.23    0.01    1.00
  95                   CONDUIT      0.00     0  00:00      0.00    0.00    0.00
  96                   CONDUIT      0.00     0  00:00      0.00    0.00    0.00
  97                   CONDUIT      0.00     0  00:00      0.00    0.00    0.00
  98                   CONDUIT      0.00     0  00:00      0.00    0.00    0.00
  99                   CONDUIT      0.00     0  00:00      0.00    0.00    0.10
  100                  CONDUIT      9.79     8  00:00      0.06    0.00    0.13
  101                  CONDUIT      0.00     0  00:00      0.00    0.00    0.00
  102                  CONDUIT      0.00     0  00:00      0.00    0.00    0.29
  103                  CONDUIT     62.92     7  16:11      0.30    0.00    0.37
  104                  CONDUIT      0.00     0  00:00      0.00    0.00    0.36
  17                   CONDUIT      0.00     0  00:00      0.00    0.00    0.00
  18                   CONDUIT      0.00     0  00:00      0.00    0.00    0.00
  66                   CONDUIT   1760.57     7  16:12      1.84    0.15    1.00
  105                  CONDUIT   1949.59     7  19:51      1.13    0.85    1.00
  106                  CONDUIT   2514.05     7  16:17      2.63    0.14    1.00
  107                  CONDUIT   2713.73     7  16:12      2.83    0.14    1.00
  108                  CONDUIT   5268.64     7  16:12      5.50    0.31    1.00
  109                  CONDUIT   5316.85     7  16:12      6.19    0.24    1.00
  110                  CONDUIT  11673.11     7  14:38     13.38    0.32    1.00
  111                  CONDUIT  12751.67     7  19:46     13.38    3.60    1.00
  112                  CONDUIT  32245.60     7  21:42     21.57    3.68    1.00
  113                  CONDUIT  23645.36     7  20:59     37.63   12.73    1.00
  114                  CONDUIT   2735.41     7  21:42      4.35    0.10    1.00
  115                  CONDUIT   2011.72     7  21:42      3.20    0.28    1.00
  116                  CONDUIT   1678.16     7  21:42      2.67    0.07    1.00
  117                  CONDUIT   1509.39     7  16:12      0.68    0.14    1.00
  118                  CONDUIT   1525.27     7  16:12      2.43    0.09    1.00
  119                  CONDUIT   1536.43     7  16:12      2.45    0.06    1.00
  120                  CONDUIT   1538.63     7  16:12      2.44    0.16    1.00
  121                  CONDUIT   1176.24     7  16:13      0.83    0.02    0.63
  122                  CONDUIT   1365.55     7  16:13      2.93    0.06    0.79
  123                  CONDUIT   1176.80     7  16:13      5.27    0.31    0.54
  124                  CONDUIT    499.60     7  16:15      1.58    0.12    0.75
  125                  CONDUIT    556.56     7  16:16      1.59    0.06    0.85
  126                  CONDUIT    597.94     7  16:25      0.80    0.10    1.00
  127                  CONDUIT    224.47     7  16:24      0.61    0.04    0.89
  128                  CONDUIT    224.61     7  16:24      0.56    0.03    1.00
  129                  CONDUIT     89.37     7  16:24      0.14    0.02    1.00
  130                  CONDUIT     85.87     7  16:24      0.27    0.02    1.00
  131                  CONDUIT     85.76     7  16:24      0.29    0.01    0.92
  132                  CONDUIT      0.00     0  00:00      0.00    0.00    0.00
  133                  CONDUIT      0.00     0  00:00      0.00    0.00    0.00
  134                  CONDUIT      0.00     0  00:00      0.00    0.00    0.00
  135                  CONDUIT      0.00     0  00:00      0.00    0.00    0.00
  136                  CONDUIT      0.00     0  00:00      0.00    0.00    0.00
  137                  CONDUIT      0.00     0  00:00      0.00    0.00    0.00
  138                  CONDUIT      0.00     0  00:00      0.00    0.00    0.00
  139                  CONDUIT      0.00     0  00:00      0.00    0.00    0.00
  140                  CONDUIT      0.00     0  00:00      0.00    0.00    0.00
  141                  CONDUIT      0.00     0  00:00      0.00    0.00    0.00
  142                  CONDUIT      0.00     0  00:00      0.00    0.00    0.00
  143                  CONDUIT      0.00     0  00:00      0.00    0.00    0.00
  145                  CONDUIT      0.00     0  00:00      0.00    0.00    0.42
  146                  CONDUIT      0.00     0  00:00      0.00    0.00    0.00
  147                  CONDUIT      0.00     0  00:00      0.00    0.00    0.00
  148                  CONDUIT      0.00     0  00:00      0.00    0.00    0.50
  149                  CONDUIT      0.00     0  00:00      0.00    0.00    0.00
  
  
  ***************************
  Flow Classification Summary
  ***************************
  
  -------------------------------------------------------------------------------------
                      Adjusted    ---------- Fraction of Time in Flow Class ---------- 
                       /Actual         Up    Down  Sub   Sup   Up    Down  Norm  Inlet 
  Conduit               Length    Dry  Dry   Dry   Crit  Crit  Crit  Crit  Ltd   Ctrl  
  -------------------------------------------------------------------------------------
  1                       1.00   1.00  0.00  0.00  0.00  0.00  0.00  0.00  0.05  0.00
  2                       1.00   0.00  1.00  0.00  0.00  0.00  0.00  0.00  0.05  0.00
  3                       1.00   0.00  0.00  0.00  1.00  0.00  0.00  0.00  0.00  0.00
  4                       1.00   0.00  0.00  0.00  1.00  0.00  0.00  0.00  0.00  0.00
  5                       1.16   0.00  1.00  0.00  0.00  0.00  0.00  0.00  0.05  0.00
  6                       1.00   0.00  0.00  0.00  1.00  0.00  0.00  0.00  0.00  0.00
  7                       1.00   0.00  0.00  0.00  1.00  0.00  0.00  0.00  0.00  0.00
  8                       1.00   0.00  0.00  0.00  1.00  0.00  0.00  0.00  0.00  0.00
  9                       1.00   0.00  0.00  0.00  1.00  0.00  0.00  0.00  0.00  0.00
  10                      1.00   0.00  0.00  0.00  1.00  0.00  0.00  0.00  0.00  0.00
  11                      1.00   0.00  0.00  0.00  1.00  0.00  0.00  0.00  0.00  0.00
  12                      1.00   0.00  0.00  0.00  1.00  0.00  0.00  0.00  0.00  0.00
  13                      1.00   0.00  0.00  0.00  1.00  0.00  0.00  0.00  0.00  0.00
  14                      1.00   0.00  0.00  0.00  1.00  0.00  0.00  0.00  0.00  0.00
  15                      1.12   0.00  0.00  0.00  1.00  0.00  0.00  0.00  0.00  0.00
  19                      1.00   0.00  0.00  0.00  1.00  0.00  0.00  0.00  0.00  0.00
  20                      1.00   0.00  0.00  0.00  1.00  0.00  0.00  0.00  0.00  0.00
  21                      1.00   0.00  0.00  0.00  1.00  0.00  0.00  0.00  0.00  0.00
  22                      1.00   0.00  0.00  0.00  1.00  0.00  0.00  0.00  0.00  0.00
  23                      1.00   0.00  0.00  0.00  1.00  0.00  0.00  0.00  0.00  0.00
  24                      1.00   0.00  0.00  0.00  1.00  0.00  0.00  0.00  0.00  0.00
  25                      1.49   0.00  0.00  0.00  1.00  0.00  0.00  0.00  0.05  0.00
  26                      1.00   0.00  0.00  0.00  1.00  0.00  0.00  0.00  0.00  0.00
  27                      1.00   0.00  0.00  0.00  1.00  0.00  0.00  0.00  0.00  0.00
  28                      1.00   0.00  0.00  0.00  1.00  0.00  0.00  0.00  0.00  0.00
  29                      1.00   0.00  0.00  0.00  1.00  0.00  0.00  0.00  0.00  0.00
  30                      1.00   0.00  0.00  0.00  1.00  0.00  0.00  0.00  0.00  0.00
  31                      1.00   0.00  0.00  0.00  1.00  0.00  0.00  0.00  0.00  0.00
  32                      1.00   0.00  0.00  0.00  1.00  0.00  0.00  0.00  0.00  0.00
  33                      1.00   0.00  0.00  0.00  1.00  0.00  0.00  0.00  0.00  0.00
  34                      1.00   0.00  1.00  0.00  0.00  0.00  0.00  0.00  0.00  0.00
  35                      1.00   0.00  0.00  0.00  1.00  0.00  0.00  0.00  0.00  0.00
  36                      1.00   0.00  0.00  0.00  1.00  0.00  0.00  0.00  0.00  0.00
  37                      1.00   0.00  0.00  0.00  1.00  0.00  0.00  0.00  0.00  0.00
  38                      1.00   0.00  0.00  0.00  1.00  0.00  0.00  0.00  0.00  0.00
  39                      1.00   0.00  0.00  0.00  1.00  0.00  0.00  0.00  0.00  0.00
  40                      1.00   0.00  0.00  0.00  1.00  0.00  0.00  0.00  0.00  0.00
  41                      1.00   0.00  0.00  0.00  1.00  0.00  0.00  0.00  0.00  0.00
  42                      1.00   0.00  0.00  0.00  1.00  0.00  0.00  0.00  0.00  0.00
  43                      1.00   0.00  0.00  0.00  1.00  0.00  0.00  0.00  0.00  0.00
  44                      1.00   0.00  0.00  0.00  1.00  0.00  0.00  0.00  0.00  0.00
  45                      1.00   0.00  0.00  0.00  1.00  0.00  0.00  0.00  0.00  0.00
  46                      1.03   0.00  0.00  0.00  1.00  0.00  0.00  0.00  0.00  0.00
  47                      1.00   0.00  0.00  0.00  1.00  0.00  0.00  0.00  0.00  0.00
  48                      1.00   0.00  0.00  0.00  1.00  0.00  0.00  0.00  0.00  0.00
  49                      1.00   0.00  0.00  0.00  1.00  0.00  0.00  0.00  0.00  0.00
  50                      1.00   0.00  0.00  0.00  1.00  0.00  0.00  0.00  0.00  0.00
  51                      1.00   1.00  0.00  0.00  0.00  0.00  0.00  0.00  0.00  0.00
  52                      1.00   1.00  0.00  0.00  0.00  0.00  0.00  0.00  0.00  0.00
  53                      1.00   1.00  0.00  0.00  0.00  0.00  0.00  0.00  0.00  0.00
  54                      1.00   1.00  0.00  0.00  0.00  0.00  0.00  0.00  0.00  0.00
  55                      1.00   1.00  0.00  0.00  0.00  0.00  0.00  0.00  0.00  0.00
  56                      1.00   1.00  0.00  0.00  0.00  0.00  0.00  0.00  0.00  0.00
  57                      1.00   1.00  0.00  0.00  0.00  0.00  0.00  0.00  0.00  0.00
  58                      1.00   1.00  0.00  0.00  0.00  0.00  0.00  0.00  0.00  0.00
  59                      1.00   1.00  0.00  0.00  0.00  0.00  0.00  0.00  0.00  0.00
  60                      1.00   1.00  0.00  0.00  0.00  0.00  0.00  0.00  0.00  0.00
  61                      1.00   1.00  0.00  0.00  0.00  0.00  0.00  0.00  0.00  0.00
  62                      1.04   1.00  0.00  0.00  0.00  0.00  0.00  0.00  0.00  0.00
  63                      1.00   0.00  1.00  0.00  0.00  0.00  0.00  0.00  0.00  0.00
  64                      1.00   0.00  0.00  0.00  1.00  0.00  0.00  0.00  0.00  0.00
  65                      1.00   0.00  0.00  0.00  1.00  0.00  0.00  0.00  0.00  0.00
  67                      1.00   0.00  0.00  0.00  1.00  0.00  0.00  0.00  0.00  0.00
  68                      1.95   0.00  0.00  0.00  1.00  0.00  0.00  0.00  0.00  0.00
  69                      3.49   1.00  0.00  0.00  0.00  0.00  0.00  0.00  0.00  0.00
  70                      1.00   1.00  0.00  0.00  0.00  0.00  0.00  0.00  0.00  0.00
  71                      1.63   1.00  0.00  0.00  0.00  0.00  0.00  0.00  0.00  0.00
  72                      1.00   1.00  0.00  0.00  0.00  0.00  0.00  0.00  0.00  0.00
  73                      1.00   1.00  0.00  0.00  0.00  0.00  0.00  0.00  0.00  0.00
  74                      1.00   1.00  0.00  0.00  0.00  0.00  0.00  0.00  0.00  0.00
  75                      1.00   1.00  0.00  0.00  0.00  0.00  0.00  0.00  0.00  0.00
  76                      1.00   1.00  0.00  0.00  0.00  0.00  0.00  0.00  0.00  0.00
  77                      1.00   1.00  0.00  0.00  0.00  0.00  0.00  0.00  0.00  0.00
  78                      1.00   1.00  0.00  0.00  0.00  0.00  0.00  0.00  0.00  0.00
  79                      1.00   1.00  0.00  0.00  0.00  0.00  0.00  0.00  0.00  0.00
  80                      1.00   0.00  0.00  0.00  1.00  0.00  0.00  0.00  0.00  0.00
  81                      1.00   0.00  0.00  0.00  1.00  0.00  0.00  0.00  0.00  0.00
  82                      1.00   0.00  0.00  0.00  1.00  0.00  0.00  0.00  0.00  0.00
  83                      1.00   0.00  0.00  0.00  1.00  0.00  0.00  0.00  0.00  0.00
  84                      1.00   0.00  0.00  0.00  1.00  0.00  0.00  0.00  0.00  0.00
  85                      1.00   0.00  0.00  0.00  1.00  0.00  0.00  0.00  0.00  0.00
  86                      1.00   0.00  0.00  0.00  1.00  0.00  0.00  0.00  0.00  0.00
  87                      1.00   0.00  0.00  0.00  1.00  0.00  0.00  0.00  0.00  0.00
  88                      1.04   0.00  0.00  0.00  1.00  0.00  0.00  0.00  0.00  0.00
  89                      1.00   0.00  1.00  0.00  0.00  0.00  0.00  0.00  0.00  0.00
  90                      9.81   0.00  0.00  0.00  1.00  0.00  0.00  0.00  0.00  0.00
  91                     40.90   0.00  0.00  0.00  1.00  0.00  0.00  0.00  0.00  0.00
  92                    776.95   0.00  1.00  0.00  0.00  0.00  0.00  0.00  0.00  0.00
  93                      8.28   0.00  0.00  0.00  1.00  0.00  0.00  0.00  0.00  0.00
  94                      1.46   0.00  0.00  0.00  1.00  0.00  0.00  0.00  0.00  0.00
  95                      1.00   1.00  0.00  0.00  0.00  0.00  0.00  0.00  0.00  0.00
  96                      1.93   1.00  0.00  0.00  0.00  0.00  0.00  0.00  0.00  0.00
  97                      1.21   1.00  0.00  0.00  0.00  0.00  0.00  0.00  0.00  0.00
  98                      1.20   1.00  0.00  0.00  0.00  0.00  0.00  0.00  0.00  0.00
  99                      1.35   0.00  1.00  0.00  0.00  0.00  0.00  0.00  0.05  0.00
  100                     1.54   0.00  0.00  0.00  1.00  0.00  0.00  0.00  0.05  0.00
  101                     1.00   1.00  0.00  0.00  0.00  0.00  0.00  0.00  0.00  0.00
  102                     1.16   0.00  1.00  0.00  0.00  0.00  0.00  0.00  0.00  0.00
  103                     1.00   0.00  0.00  0.00  1.00  0.00  0.00  0.00  0.00  0.00
  104                     1.00   0.00  1.00  0.00  0.00  0.00  0.00  0.00  0.05  0.00
  17                      1.00   1.00  0.00  0.00  0.00  0.00  0.00  0.00  0.00  0.00
  18                      1.00   1.00  0.00  0.00  0.00  0.00  0.00  0.00  0.00  0.00
  66                      1.00   0.00  0.00  0.00  1.00  0.00  0.00  0.00  0.00  0.00
  105                     1.00   0.00  0.00  0.00  1.00  0.00  0.00  0.00  0.00  0.00
  106                     1.00   0.00  0.00  0.00  1.00  0.00  0.00  0.00  0.00  0.00
  107                     1.00   0.00  0.00  0.00  1.00  0.00  0.00  0.00  0.00  0.00
  108                     1.00   0.00  0.00  0.00  1.00  0.00  0.00  0.00  0.00  0.00
  109                     1.00   0.00  0.00  0.00  1.00  0.00  0.00  0.00  0.00  0.00
  110                     1.00   0.00  0.00  0.00  1.00  0.00  0.00  0.00  0.00  0.00
  111                     1.00   0.00  0.00  0.00  1.00  0.00  0.00  0.00  0.00  0.00
  112                     1.00   0.00  0.00  0.00  1.00  0.00  0.00  0.00  0.00  0.00
  113                     1.31   0.00  0.00  0.00  1.00  0.00  0.00  0.00  0.00  0.00
  114                     1.00   0.00  0.00  0.00  1.00  0.00  0.00  0.00  0.00  0.00
  115                     1.00   0.00  0.00  0.00  1.00  0.00  0.00  0.00  0.00  0.00
  116                     1.00   0.00  0.00  0.00  1.00  0.00  0.00  0.00  0.00  0.00
  117                     1.00   0.00  0.00  0.00  1.00  0.00  0.00  0.00  0.00  0.00
  118                     1.00   0.00  0.00  0.00  1.00  0.00  0.00  0.00  0.00  0.00
  119                     1.00   0.00  0.00  0.00  1.00  0.00  0.00  0.00  0.00  0.00
  120                     1.00   0.00  0.00  0.00  1.00  0.00  0.00  0.00  0.00  0.00
  121                     1.00   0.00  0.00  0.00  1.00  0.00  0.00  0.00  0.00  0.00
  122                     1.00   0.00  0.00  0.00  1.00  0.00  0.00  0.00  0.00  0.00
  123                     1.27   0.00  0.00  0.00  1.00  0.00  0.00  0.00  0.00  0.00
  124                     1.00   0.00  0.00  0.00  1.00  0.00  0.00  0.00  0.00  0.00
  125                     1.00   0.00  0.00  0.00  1.00  0.00  0.00  0.00  0.00  0.00
  126                     1.00   0.00  0.00  0.00  1.00  0.00  0.00  0.00  0.00  0.00
  127                     1.00   0.00  0.00  0.00  1.00  0.00  0.00  0.00  0.00  0.00
  128                     1.00   0.00  0.00  0.00  1.00  0.00  0.00  0.00  0.00  0.00
  129                     1.00   0.00  0.00  0.00  1.00  0.00  0.00  0.00  0.00  0.00
  130                     1.00   0.00  0.00  0.00  1.00  0.00  0.00  0.00  0.00  0.00
  131                     1.00   0.00  0.00  0.00  1.00  0.00  0.00  0.00  0.00  0.00
  132                     1.85   1.00  0.00  0.00  0.00  0.00  0.00  0.00  0.00  0.00
  133                     1.00   1.00  0.00  0.00  0.00  0.00  0.00  0.00  0.00  0.00
  134                     1.00   1.00  0.00  0.00  0.00  0.00  0.00  0.00  0.00  0.00
  135                     1.12   1.00  0.00  0.00  0.00  0.00  0.00  0.00  0.00  0.00
  136                     1.00   1.00  0.00  0.00  0.00  0.00  0.00  0.00  0.00  0.00
  137                     1.00   1.00  0.00  0.00  0.00  0.00  0.00  0.00  0.00  0.00
  138                     1.00   1.00  0.00  0.00  0.00  0.00  0.00  0.00  0.00  0.00
  139                     1.00   1.00  0.00  0.00  0.00  0.00  0.00  0.00  0.00  0.00
  140                     1.33   1.00  0.00  0.00  0.00  0.00  0.00  0.00  0.00  0.00
  141                     1.18   1.00  0.00  0.00  0.00  0.00  0.00  0.00  0.00  0.00
  142                     1.00   1.00  0.00  0.00  0.00  0.00  0.00  0.00  0.00  0.00
  143                     1.00   1.00  0.00  0.00  0.00  0.00  0.00  0.00  0.00  0.00
  145                     1.00   0.00  1.00  0.00  0.00  0.00  0.00  0.00  0.05  0.00
  146                     2.31   1.00  0.00  0.00  0.00  0.00  0.00  0.00  0.00  0.00
  147                    90.89   1.00  0.00  0.00  0.00  0.00  0.00  0.00  0.00  0.00
  148                     2.61   0.00  1.00  0.00  0.00  0.00  0.00  0.00  0.00  0.00
  149                     1.00   1.00  0.00  0.00  0.00  0.00  0.00  0.00  0.00  0.00
  
  
  *************************
  Conduit Surcharge Summary
  *************************
  
  ----------------------------------------------------------------------------
                                                           Hours        Hours 
                         --------- Hours Full --------   Above Full   Capacity
  Conduit                Both Ends  Upstream  Dnstream   Normal Flow   Limited
  ----------------------------------------------------------------------------
  7                           0.01      0.01     10.00      0.01         0.01
  8                          10.00     10.00     10.00      0.01         2.35
  9                          10.00     10.00     10.00      0.01         0.01
  10                         10.00     10.00     10.00      0.01         0.01
  11                         10.00     10.00     10.00      0.01         0.01
  12                         10.00     10.00     10.00      0.01         0.01
  13                         10.00     10.00     10.00      0.01         0.01
  14                         10.00     10.00     10.00      0.01         0.01
  15                          0.01      0.01     10.00      0.01         0.01
  19                         10.00     10.00     10.00      0.01         0.01
  20                         10.00     10.00     10.00      0.01         0.01
  21                         10.00     10.00     10.00      0.01         0.01
  22                          0.01      0.01     10.00      0.01         0.01
  29                          0.01      0.01     10.00      0.01         0.01
  31                         10.00     10.00     10.00      0.01         0.01
  32                         10.00     10.00     10.00      0.01         0.01
  33                         10.00     10.00     10.00      0.01         0.01
  37                         10.00     10.00     10.00      0.01         0.01
  38                         10.00     10.00     10.00      0.01         0.01
  39                         10.00     10.00     10.00      0.01         4.90
  40                         10.00     10.00     10.00      0.01         0.01
  41                         10.00     10.00     10.00      0.01         0.01
  42                         10.00     10.00     10.00      0.01         0.01
  44                         10.00     10.00     10.00      0.01         0.01
  45                         10.00     10.00     10.00      0.01         0.01
  46                         10.00     10.00     10.00      0.01         0.01
  47                         10.00     10.00     10.00      0.01         0.01
  48                         10.00     10.00     10.00      0.01         4.76
  49                         10.00     10.00     10.00      0.01         0.01
  50                          0.01      0.01     10.00      0.01         0.01
  65                          0.01      0.01     10.00      0.01         0.01
  68                         10.00     10.00     10.00      0.01         0.01
  80                         10.00     10.00     10.00      0.01         4.64
  81                         10.00     10.00     10.00      0.01         0.01
  82                         10.00     10.00     10.00      0.01         0.01
  83                         10.00     10.00     10.00      0.01         0.01
  85                         10.00     10.00     10.00      0.01         4.76
  86                         10.00     10.00     10.00      0.01         0.01
  87                          0.01      0.01     10.00      0.01         0.01
  90                          0.01      0.01     10.00      0.01         0.01
  91                         10.00     10.00     10.00      0.01         0.01
  93                          0.01      0.01     10.00      0.01         0.01
  94                         10.00     10.00     10.00      0.01         0.01
  66                         10.00     10.00     10.00      0.01         0.01
  105                         8.15      8.44      8.18      0.01         2.28
  106                        10.00     10.00     10.00      0.01         0.01
  107                         0.07      0.07     10.00      0.01         0.01
  108                         0.07      0.07      8.68      0.01         0.01
  109                         0.01      0.01      8.68      0.01         0.01
  110                         0.01      0.01      9.98      0.01         0.01
  111                         9.95      9.98      9.96      0.32         3.40
  112                         0.01      0.01      0.01      0.09         0.01
  113                         9.88      9.93      9.90      0.11         2.15
  114                         9.90      9.90     10.00      0.01         0.01
  115                        10.00     10.00     10.00      0.01         0.06
  116                        10.00     10.00     10.00      0.01         0.01
  117                        10.00     10.00     10.00      0.01         0.18
  118                        10.00     10.00     10.00      0.01         0.01
  119                        10.00     10.00     10.00      0.01         0.01
  120                        10.00     10.00     10.00      0.01         0.01
  122                         0.01      0.01     10.00      0.01         0.01
  126                         3.35      3.35      9.19      0.01         0.01
  127                         0.01      0.01     10.00      0.01         0.01
  128                         0.06      0.06     10.00      0.01         0.01
  129                        10.00     10.00     10.00      0.01         0.01
  130                        10.00     10.00     10.00      0.01         0.01
  131                         0.01      0.01     10.00      0.01         0.01
  
  
  ************
  Node Results
  ************
  
  <<< Node 1 >>>
  ----------------------------------------------------------------
                           Inflow  Flooding     Depth      Head
  Date        Time            CFS       CFS      feet      feet
  ----------------------------------------------------------------
   01/08/2020 14:00:00      0.000     0.000     0.000    10.010
   01/08/2020 14:15:00      0.000     0.000     0.000    10.010
   01/08/2020 14:30:00      0.000     0.000     0.000    10.010
   01/08/2020 14:45:00      0.000     0.000     0.000    10.010
   01/08/2020 15:00:00      0.000     0.000     0.000    10.010
   01/08/2020 15:15:00      0.000     0.000     0.000    10.010
   01/08/2020 15:30:00      0.000     0.000     0.000    10.010
   01/08/2020 15:45:00      0.000     0.000     0.000    10.010
   01/08/2020 16:00:00      0.000     0.000     0.000    10.010
   01/08/2020 16:15:00      0.000     0.000     0.000    10.010
   01/08/2020 16:30:00      0.000     0.000     0.000    10.010
   01/08/2020 16:45:00      0.000     0.000     0.000    10.010
   01/08/2020 17:00:00      0.000     0.000     0.000    10.010
   01/08/2020 17:15:00      0.000     0.000     0.000    10.010
   01/08/2020 17:30:00      0.000     0.000     0.000    10.010
   01/08/2020 17:45:00      0.000     0.000     0.000    10.010
   01/08/2020 18:00:00      0.000     0.000     0.000    10.010
   01/08/2020 18:15:00      0.000     0.000     0.000    10.010
   01/08/2020 18:30:00      0.000     0.000     0.000    10.010
   01/08/2020 18:45:00      0.000     0.000     0.000    10.010
   01/08/2020 19:00:00      0.000     0.000     0.000    10.010
   01/08/2020 19:15:00      0.000     0.000     0.000    10.010
   01/08/2020 19:30:00      0.000     0.000     0.000    10.010
   01/08/2020 19:45:00      0.000     0.000     0.000    10.010
   01/08/2020 20:00:00      0.000     0.000     0.000    10.010
   01/08/2020 20:15:00      0.000     0.000     0.000    10.010
   01/08/2020 20:30:00      0.000     0.000     0.000    10.010
   01/08/2020 20:45:00      0.000     0.000     0.000    10.010
   01/08/2020 21:00:00      0.000     0.000     0.000    10.010
   01/08/2020 21:15:00      0.000     0.000     0.000    10.010
   01/08/2020 21:30:00      0.000     0.000     0.000    10.010
   01/08/2020 21:45:00      0.000     0.000     0.000    10.010
   01/08/2020 22:00:00      0.000     0.000     0.000    10.010
   01/08/2020 22:15:00      0.000     0.000     0.000    10.010
   01/08/2020 22:30:00      0.000     0.000     0.000    10.010
   01/08/2020 22:45:00      0.000     0.000     0.000    10.010
   01/08/2020 23:00:00      0.000     0.000     0.000    10.010
   01/08/2020 23:15:00      0.000     0.000     0.000    10.010
   01/08/2020 23:30:00      0.000     0.000     0.000    10.010
   01/08/2020 23:45:00      0.000     0.000     0.000    10.010
   01/09/2020 00:00:00      0.000     0.000     0.000    10.010
  
  
  <<< Node 2 >>>
  ----------------------------------------------------------------
                           Inflow  Flooding     Depth      Head
  Date        Time            CFS       CFS      feet      feet
  ----------------------------------------------------------------
   01/08/2020 14:00:00      0.000     0.000     0.000     8.990
   01/08/2020 14:15:00      0.000     0.000     0.000     8.990
   01/08/2020 14:30:00      0.000     0.000     0.000     8.990
   01/08/2020 14:45:00      0.000     0.000     0.000     8.990
   01/08/2020 15:00:00      0.000     0.000     0.000     8.990
   01/08/2020 15:15:00      0.000     0.000     0.000     8.990
   01/08/2020 15:30:00      0.000     0.000     0.000     8.990
   01/08/2020 15:45:00      0.000     0.000     0.000     8.990
   01/08/2020 16:00:00      0.000     0.000     0.000     8.990
   01/08/2020 16:15:00      0.000     0.000     0.000     8.990
   01/08/2020 16:30:00      0.000     0.000     0.000     8.990
   01/08/2020 16:45:00      0.000     0.000     0.000     8.990
   01/08/2020 17:00:00      0.000     0.000     0.000     8.990
   01/08/2020 17:15:00      0.000     0.000     0.000     8.990
   01/08/2020 17:30:00      0.000     0.000     0.000     8.990
   01/08/2020 17:45:00      0.000     0.000     0.000     8.990
   01/08/2020 18:00:00      0.000     0.000     0.000     8.990
   01/08/2020 18:15:00      0.000     0.000     0.000     8.990
   01/08/2020 18:30:00      0.000     0.000     0.000     8.990
   01/08/2020 18:45:00      0.000     0.000     0.000     8.990
   01/08/2020 19:00:00      0.000     0.000     0.000     8.990
   01/08/2020 19:15:00      0.000     0.000     0.000     8.990
   01/08/2020 19:30:00      0.000     0.000     0.000     8.990
   01/08/2020 19:45:00      0.000     0.000     0.000     8.990
   01/08/2020 20:00:00      0.000     0.000     0.000     8.990
   01/08/2020 20:15:00      0.000     0.000     0.000     8.990
   01/08/2020 20:30:00      0.000     0.000     0.000     8.990
   01/08/2020 20:45:00      0.000     0.000     0.000     8.990
   01/08/2020 21:00:00      0.000     0.000     0.000     8.990
   01/08/2020 21:15:00      0.000     0.000     0.000     8.990
   01/08/2020 21:30:00      0.000     0.000     0.000     8.990
   01/08/2020 21:45:00      0.000     0.000     0.000     8.990
   01/08/2020 22:00:00      0.000     0.000     0.000     8.990
   01/08/2020 22:15:00      0.000     0.000     0.000     8.990
   01/08/2020 22:30:00      0.000     0.000     0.000     8.990
   01/08/2020 22:45:00      0.000     0.000     0.000     8.990
   01/08/2020 23:00:00      0.000     0.000     0.000     8.990
   01/08/2020 23:15:00      0.000     0.000     0.000     8.990
   01/08/2020 23:30:00      0.000     0.000     0.000     8.990
   01/08/2020 23:45:00      0.000     0.000     0.000     8.990
   01/09/2020 00:00:00      0.000     0.000     0.000     8.990
  
  
  <<< Node 3 >>>
  ----------------------------------------------------------------
                           Inflow  Flooding     Depth      Head
  Date        Time            CFS       CFS      feet      feet
  ----------------------------------------------------------------
   01/08/2020 14:00:00      0.000     0.000    11.810     8.590
   01/08/2020 14:15:00      0.002     0.000    11.810     8.590
   01/08/2020 14:30:00      0.002     0.000    11.810     8.590
   01/08/2020 14:45:00      0.001     0.000    11.810     8.590
   01/08/2020 15:00:00      0.000     0.000    11.810     8.590
   01/08/2020 15:15:00      0.000     0.000    11.810     8.590
   01/08/2020 15:30:00      0.000     0.000    11.810     8.590
   01/08/2020 15:45:00      0.000     0.000    11.810     8.590
   01/08/2020 16:00:00      0.001     0.000    11.810     8.590
   01/08/2020 16:15:00      0.000     0.000    11.810     8.590
   01/08/2020 16:30:00      0.001     0.000    11.810     8.590
   01/08/2020 16:45:00      0.000     0.000    11.810     8.590
   01/08/2020 17:00:00      0.000     0.000    11.810     8.590
   01/08/2020 17:15:00      0.000     0.000    11.810     8.590
   01/08/2020 17:30:00      0.000     0.000    11.810     8.590
   01/08/2020 17:45:00      0.000     0.000    11.810     8.590
   01/08/2020 18:00:00      0.001     0.000    11.810     8.590
   01/08/2020 18:15:00      0.001     0.000    11.810     8.590
   01/08/2020 18:30:00      0.000     0.000    11.810     8.590
   01/08/2020 18:45:00      0.000     0.000    11.810     8.590
   01/08/2020 19:00:00      0.001     0.000    11.810     8.590
   01/08/2020 19:15:00      0.000     0.000    11.810     8.590
   01/08/2020 19:30:00      0.000     0.000    11.810     8.590
   01/08/2020 19:45:00      0.000     0.000    11.810     8.590
   01/08/2020 20:00:00      0.001     0.000    11.810     8.590
   01/08/2020 20:15:00      0.000     0.000    11.810     8.590
   01/08/2020 20:30:00      0.001     0.000    11.810     8.590
[...]
   01/08/2020 16:15:00      0.000     0.000     0.000     0.000
   01/08/2020 16:30:00      0.000     0.000     0.000     0.000
   01/08/2020 16:45:00      0.000     0.000     0.000     0.000
   01/08/2020 17:00:00      0.000     0.000     0.000     0.000
   01/08/2020 17:15:00      0.000     0.000     0.000     0.000
   01/08/2020 17:30:00      0.000     0.000     0.000     0.000
   01/08/2020 17:45:00      0.000     0.000     0.000     0.000
   01/08/2020 18:00:00      0.000     0.000     0.000     0.000
   01/08/2020 18:15:00      0.000     0.000     0.000     0.000
   01/08/2020 18:30:00      0.000     0.000     0.000     0.000
   01/08/2020 18:45:00      0.000     0.000     0.000     0.000
   01/08/2020 19:00:00      0.000     0.000     0.000     0.000
   01/08/2020 19:15:00      0.000     0.000     0.000     0.000
   01/08/2020 19:30:00      0.000     0.000     0.000     0.000
   01/08/2020 19:45:00      0.000     0.000     0.000     0.000
   01/08/2020 20:00:00      0.000     0.000     0.000     0.000
   01/08/2020 20:15:00      0.000     0.000     0.000     0.000
   01/08/2020 20:30:00      0.000     0.000     0.000     0.000
   01/08/2020 20:45:00      0.000     0.000     0.000     0.000
   01/08/2020 21:00:00      0.000     0.000     0.000     0.000
   01/08/2020 21:15:00      0.000     0.000     0.000     0.000
   01/08/2020 21:30:00      0.000     0.000     0.000     0.000
   01/08/2020 21:45:00      0.000     0.000     0.000     0.000
   01/08/2020 22:00:00      0.000     0.000     0.000     0.000
   01/08/2020 22:15:00      0.000     0.000     0.000     0.000
   01/08/2020 22:30:00      0.000     0.000     0.000     0.000
   01/08/2020 22:45:00      0.000     0.000     0.000     0.000
   01/08/2020 23:00:00      0.000     0.000     0.000     0.000
   01/08/2020 23:15:00      0.000     0.000     0.000     0.000
   01/08/2020 23:30:00      0.000     0.000     0.000     0.000
   01/08/2020 23:45:00      0.000     0.000     0.000     0.000
   01/09/2020 00:00:00      0.000     0.000     0.000     0.000
  
  
  <<< Link 143 >>>
  ----------------------------------------------------------------
                             Flow  Velocity     Depth  Capacity/
  Date        Time            CFS    ft/sec      feet   Setting 
  ----------------------------------------------------------------
   01/08/2020 14:00:00      0.000     0.000     0.000     0.000
   01/08/2020 14:15:00      0.000     0.000     0.000     0.000
   01/08/2020 14:30:00      0.000     0.000     0.000     0.000
   01/08/2020 14:45:00      0.000     0.000     0.000     0.000
   01/08/2020 15:00:00      0.000     0.000     0.000     0.000
   01/08/2020 15:15:00      0.000     0.000     0.000     0.000
   01/08/2020 15:30:00      0.000     0.000     0.000     0.000
   01/08/2020 15:45:00      0.000     0.000     0.000     0.000
   01/08/2020 16:00:00      0.000     0.000     0.000     0.000
   01/08/2020 16:15:00      0.000     0.000     0.000     0.000
   01/08/2020 16:30:00      0.000     0.000     0.000     0.000
   01/08/2020 16:45:00      0.000     0.000     0.000     0.000
   01/08/2020 17:00:00      0.000     0.000     0.000     0.000
   01/08/2020 17:15:00      0.000     0.000     0.000     0.000
   01/08/2020 17:30:00      0.000     0.000     0.000     0.000
   01/08/2020 17:45:00      0.000     0.000     0.000     0.000
   01/08/2020 18:00:00      0.000     0.000     0.000     0.000
   01/08/2020 18:15:00      0.000     0.000     0.000     0.000
   01/08/2020 18:30:00      0.000     0.000     0.000     0.000
   01/08/2020 18:45:00      0.000     0.000     0.000     0.000
   01/08/2020 19:00:00      0.000     0.000     0.000     0.000
   01/08/2020 19:15:00      0.000     0.000     0.000     0.000
   01/08/2020 19:30:00      0.000     0.000     0.000     0.000
   01/08/2020 19:45:00      0.000     0.000     0.000     0.000
   01/08/2020 20:00:00      0.000     0.000     0.000     0.000
   01/08/2020 20:15:00      0.000     0.000     0.000     0.000
   01/08/2020 20:30:00      0.000     0.000     0.000     0.000
   01/08/2020 20:45:00      0.000     0.000     0.000     0.000
   01/08/2020 21:00:00      0.000     0.000     0.000     0.000
   01/08/2020 21:15:00      0.000     0.000     0.000     0.000
   01/08/2020 21:30:00      0.000     0.000     0.000     0.000
   01/08/2020 21:45:00      0.000     0.000     0.000     0.000
   01/08/2020 22:00:00      0.000     0.000     0.000     0.000
   01/08/2020 22:15:00      0.000     0.000     0.000     0.000
   01/08/2020 22:30:00      0.000     0.000     0.000     0.000
   01/08/2020 22:45:00      0.000     0.000     0.000     0.000
   01/08/2020 23:00:00      0.000     0.000     0.000     0.000
   01/08/2020 23:15:00      0.000     0.000     0.000     0.000
   01/08/2020 23:30:00      0.000     0.000     0.000     0.000
   01/08/2020 23:45:00      0.000     0.000     0.000     0.000
   01/09/2020 00:00:00      0.000     0.000     0.000     0.000
  
  
  <<< Link 145 >>>
  ----------------------------------------------------------------
                             Flow  Velocity     Depth  Capacity/
  Date        Time            CFS    ft/sec      feet   Setting 
  ----------------------------------------------------------------
   01/08/2020 14:00:00     -0.000    -0.000     6.026     0.402
   01/08/2020 14:15:00     -0.000    -0.000     5.789     0.386
   01/08/2020 14:30:00     -0.000    -0.000     6.138     0.409
   01/08/2020 14:45:00     -0.000    -0.000     5.785     0.386
   01/08/2020 15:00:00     -0.000    -0.000     5.539     0.369
   01/08/2020 15:15:00     -0.000    -0.000     5.614     0.374
   01/08/2020 15:30:00     -0.000    -0.000     5.918     0.395
   01/08/2020 15:45:00     -0.000    -0.000     5.863     0.391
   01/08/2020 16:00:00     -0.000    -0.000     5.684     0.379
   01/08/2020 16:15:00     -0.000    -0.000     5.699     0.380
   01/08/2020 16:30:00     -0.000    -0.000     5.519     0.368
   01/08/2020 16:45:00     -0.000    -0.000     5.407     0.360
   01/08/2020 17:00:00     -0.000    -0.000     5.339     0.356
   01/08/2020 17:15:00     -0.000    -0.000     5.398     0.360
   01/08/2020 17:30:00     -0.000    -0.000     5.756     0.384
   01/08/2020 17:45:00     -0.000    -0.000     5.456     0.364
   01/08/2020 18:00:00     -0.000    -0.000     5.462     0.364
   01/08/2020 18:15:00     -0.000    -0.000     5.876     0.392
   01/08/2020 18:30:00     -0.000    -0.000     5.262     0.351
   01/08/2020 18:45:00     -0.000    -0.000     5.741     0.383
   01/08/2020 19:00:00     -0.000    -0.000     5.483     0.366
   01/08/2020 19:15:00     -0.000    -0.000     5.339     0.356
   01/08/2020 19:30:00     -0.000    -0.000     5.795     0.386
   01/08/2020 19:45:00     -0.000    -0.000     5.384     0.359
   01/08/2020 20:00:00     -0.000    -0.000     5.649     0.377
   01/08/2020 20:15:00     -0.000    -0.000     5.452     0.363
   01/08/2020 20:30:00     -0.000    -0.000     5.304     0.354
   01/08/2020 20:45:00     -0.000    -0.000     5.640     0.376
   01/08/2020 21:00:00     -0.000    -0.000     5.329     0.355
   01/08/2020 21:15:00     -0.000    -0.000     5.727     0.382
   01/08/2020 21:30:00     -0.000    -0.000     5.328     0.355
   01/08/2020 21:45:00     -0.000    -0.000     5.425     0.362
   01/08/2020 22:00:00     -0.000    -0.000     5.416     0.361
   01/08/2020 22:15:00     -0.000    -0.000     5.036     0.336
   01/08/2020 22:30:00     -0.000    -0.000     4.996     0.333
   01/08/2020 22:45:00     -0.000    -0.000     5.298     0.353
   01/08/2020 23:00:00     -0.000    -0.000     5.294     0.353
   01/08/2020 23:15:00     -0.000    -0.000     5.277     0.352
   01/08/2020 23:30:00     -0.000    -0.000     5.632     0.375
   01/08/2020 23:45:00     -0.000    -0.000     5.254     0.350
   01/09/2020 00:00:00     -0.000    -0.000     5.533     0.369
  
  
  <<< Link 146 >>>
  ----------------------------------------------------------------
                             Flow  Velocity     Depth  Capacity/
  Date        Time            CFS    ft/sec      feet   Setting 
  ----------------------------------------------------------------
   01/08/2020 14:00:00     -0.000    -0.000     0.000     0.000
   01/08/2020 14:15:00     -0.000    -0.000     0.000     0.000
   01/08/2020 14:30:00     -0.000    -0.000     0.000     0.000
   01/08/2020 14:45:00     -0.000    -0.000     0.000     0.000
   01/08/2020 15:00:00     -0.000    -0.000     0.000     0.000
   01/08/2020 15:15:00     -0.000    -0.000     0.000     0.000
   01/08/2020 15:30:00     -0.000    -0.000     0.000     0.000
   01/08/2020 15:45:00     -0.000    -0.000     0.000     0.000
   01/08/2020 16:00:00     -0.000    -0.000     0.000     0.000
   01/08/2020 16:15:00     -0.000    -0.000     0.000     0.000
   01/08/2020 16:30:00     -0.000    -0.000     0.000     0.000
   01/08/2020 16:45:00     -0.000    -0.000     0.000     0.000
   01/08/2020 17:00:00     -0.000    -0.000     0.000     0.000
   01/08/2020 17:15:00     -0.000    -0.000     0.000     0.000
   01/08/2020 17:30:00     -0.000    -0.000     0.000     0.000
   01/08/2020 17:45:00     -0.000    -0.000     0.000     0.000
   01/08/2020 18:00:00     -0.000    -0.000     0.000     0.000
   01/08/2020 18:15:00     -0.000    -0.000     0.000     0.000
   01/08/2020 18:30:00     -0.000    -0.000     0.000     0.000
   01/08/2020 18:45:00     -0.000    -0.000     0.000     0.000
   01/08/2020 19:00:00     -0.000    -0.000     0.000     0.000
   01/08/2020 19:15:00     -0.000    -0.000     0.000     0.000
   01/08/2020 19:30:00     -0.000    -0.000     0.000     0.000
   01/08/2020 19:45:00     -0.000    -0.000     0.000     0.000
   01/08/2020 20:00:00     -0.000    -0.000     0.000     0.000
   01/08/2020 20:15:00     -0.000    -0.000     0.000     0.000
   01/08/2020 20:30:00     -0.000    -0.000     0.000     0.000
   01/08/2020 20:45:00     -0.000    -0.000     0.000     0.000
   01/08/2020 21:00:00     -0.000    -0.000     0.000     0.000
   01/08/2020 21:15:00     -0.000    -0.000     0.000     0.000
   01/08/2020 21:30:00     -0.000    -0.000     0.000     0.000
   01/08/2020 21:45:00     -0.000    -0.000     0.000     0.000
   01/08/2020 22:00:00     -0.000    -0.000     0.000     0.000
   01/08/2020 22:15:00     -0.000    -0.000     0.000     0.000
   01/08/2020 22:30:00     -0.000    -0.000     0.000     0.000
   01/08/2020 22:45:00     -0.000    -0.000     0.000     0.000
   01/08/2020 23:00:00     -0.000    -0.000     0.000     0.000
   01/08/2020 23:15:00     -0.000    -0.000     0.000     0.000
   01/08/2020 23:30:00     -0.000    -0.000     0.000     0.000
   01/08/2020 23:45:00     -0.000    -0.000     0.000     0.000
   01/09/2020 00:00:00     -0.000    -0.000     0.000     0.000
  
  
  <<< Link 147 >>>
  ----------------------------------------------------------------
                             Flow  Velocity     Depth  Capacity/
  Date        Time            CFS    ft/sec      feet   Setting 
  ----------------------------------------------------------------
   01/08/2020 14:00:00      0.000     0.000     0.000     0.000
   01/08/2020 14:15:00      0.000     0.000     0.000     0.000
   01/08/2020 14:30:00      0.000     0.000     0.000     0.000
   01/08/2020 14:45:00      0.000     0.000     0.000     0.000
   01/08/2020 15:00:00      0.000     0.000     0.000     0.000
   01/08/2020 15:15:00      0.000     0.000     0.000     0.000
   01/08/2020 15:30:00      0.000     0.000     0.000     0.000
   01/08/2020 15:45:00      0.000     0.000     0.000     0.000
   01/08/2020 16:00:00      0.000     0.000     0.000     0.000
   01/08/2020 16:15:00      0.000     0.000     0.000     0.000
   01/08/2020 16:30:00      0.000     0.000     0.000     0.000
   01/08/2020 16:45:00      0.000     0.000     0.000     0.000
   01/08/2020 17:00:00      0.000     0.000     0.000     0.000
   01/08/2020 17:15:00      0.000     0.000     0.000     0.000
   01/08/2020 17:30:00      0.000     0.000     0.000     0.000
   01/08/2020 17:45:00      0.000     0.000     0.000     0.000
   01/08/2020 18:00:00      0.000     0.000     0.000     0.000
   01/08/2020 18:15:00      0.000     0.000     0.000     0.000
   01/08/2020 18:30:00      0.000     0.000     0.000     0.000
   01/08/2020 18:45:00      0.000     0.000     0.000     0.000
   01/08/2020 19:00:00      0.000     0.000     0.000     0.000
   01/08/2020 19:15:00      0.000     0.000     0.000     0.000
   01/08/2020 19:30:00      0.000     0.000     0.000     0.000
   01/08/2020 19:45:00      0.000     0.000     0.000     0.000
   01/08/2020 20:00:00      0.000     0.000     0.000     0.000
   01/08/2020 20:15:00      0.000     0.000     0.000     0.000
   01/08/2020 20:30:00      0.000     0.000     0.000     0.000
   01/08/2020 20:45:00      0.000     0.000     0.000     0.000
   01/08/2020 21:00:00      0.000     0.000     0.000     0.000
   01/08/2020 21:15:00      0.000     0.000     0.000     0.000
   01/08/2020 21:30:00      0.000     0.000     0.000     0.000
   01/08/2020 21:45:00      0.000     0.000     0.000     0.000
   01/08/2020 22:00:00      0.000     0.000     0.000     0.000
   01/08/2020 22:15:00      0.000     0.000     0.000     0.000
   01/08/2020 22:30:00      0.000     0.000     0.000     0.000
   01/08/2020 22:45:00      0.000     0.000     0.000     0.000
   01/08/2020 23:00:00      0.000     0.000     0.000     0.000
   01/08/2020 23:15:00      0.000     0.000     0.000     0.000
   01/08/2020 23:30:00      0.000     0.000     0.000     0.000
   01/08/2020 23:45:00      0.000     0.000     0.000     0.000
   01/09/2020 00:00:00      0.000     0.000     0.000     0.000
  
  
  <<< Link 148 >>>
  ----------------------------------------------------------------
                             Flow  Velocity     Depth  Capacity/
  Date        Time            CFS    ft/sec      feet   Setting 
  ----------------------------------------------------------------
   01/08/2020 14:00:00      0.000     0.000     7.500     0.500
   01/08/2020 14:15:00      0.000     0.000     7.500     0.500
   01/08/2020 14:30:00      0.000     0.000     7.500     0.500
   01/08/2020 14:45:00      0.000     0.000     7.500     0.500
   01/08/2020 15:00:00      0.000     0.000     7.500     0.500
   01/08/2020 15:15:00      0.000     0.000     7.500     0.500
   01/08/2020 15:30:00      0.000     0.000     7.500     0.500
   01/08/2020 15:45:00      0.000     0.000     7.500     0.500
   01/08/2020 16:00:00      0.000     0.000     7.500     0.500
   01/08/2020 16:15:00      0.000     0.000     7.500     0.500
   01/08/2020 16:30:00      0.000     0.000     7.500     0.500
   01/08/2020 16:45:00      0.000     0.000     7.500     0.500
   01/08/2020 17:00:00      0.000     0.000     7.500     0.500
   01/08/2020 17:15:00      0.000     0.000     7.500     0.500
   01/08/2020 17:30:00      0.000     0.000     7.500     0.500
   01/08/2020 17:45:00      0.000     0.000     7.500     0.500
   01/08/2020 18:00:00      0.000     0.000     7.500     0.500
   01/08/2020 18:15:00      0.000     0.000     7.500     0.500
   01/08/2020 18:30:00      0.000     0.000     7.500     0.500
   01/08/2020 18:45:00      0.000     0.000     7.500     0.500
   01/08/2020 19:00:00      0.000     0.000     7.500     0.500
   01/08/2020 19:15:00      0.000     0.000     7.500     0.500
   01/08/2020 19:30:00      0.000     0.000     7.500     0.500
   01/08/2020 19:45:00      0.000     0.000     7.500     0.500
   01/08/2020 20:00:00      0.000     0.000     7.500     0.500
   01/08/2020 20:15:00      0.000     0.000     7.500     0.500
   01/08/2020 20:30:00      0.000     0.000     7.500     0.500
   01/08/2020 20:45:00      0.000     0.000     7.500     0.500
   01/08/2020 21:00:00      0.000     0.000     7.500     0.500
   01/08/2020 21:15:00      0.000     0.000     7.500     0.500
   01/08/2020 21:30:00      0.000     0.000     7.500     0.500
   01/08/2020 21:45:00      0.000     0.000     7.500     0.500
   01/08/2020 22:00:00      0.000     0.000     7.500     0.500
   01/08/2020 22:15:00      0.000     0.000     7.500     0.500
   01/08/2020 22:30:00      0.000     0.000     7.500     0.500
   01/08/2020 22:45:00      0.000     0.000     7.500     0.500
   01/08/2020 23:00:00      0.000     0.000     7.500     0.500
   01/08/2020 23:15:00      0.000     0.000     7.500     0.500
   01/08/2020 23:30:00      0.000     0.000     7.500     0.500
   01/08/2020 23:45:00      0.000     0.000     7.500     0.500
   01/09/2020 00:00:00      0.000     0.000     7.500     0.500
  
  
  <<< Link 149 >>>
  ----------------------------------------------------------------
                             Flow  Velocity     Depth  Capacity/
  Date        Time            CFS    ft/sec      feet   Setting 
  ----------------------------------------------------------------
   01/08/2020 14:00:00     -0.000    -0.000     0.000     0.000
   01/08/2020 14:15:00     -0.000    -0.000     0.000     0.000
   01/08/2020 14:30:00     -0.000    -0.000     0.000     0.000
   01/08/2020 14:45:00     -0.000    -0.000     0.000     0.000
   01/08/2020 15:00:00     -0.000    -0.000     0.000     0.000
   01/08/2020 15:15:00     -0.000    -0.000     0.000     0.000
   01/08/2020 15:30:00     -0.000    -0.000     0.000     0.000
   01/08/2020 15:45:00     -0.000    -0.000     0.000     0.000
   01/08/2020 16:00:00     -0.000    -0.000     0.000     0.000
   01/08/2020 16:15:00     -0.000    -0.000     0.000     0.000
   01/08/2020 16:30:00     -0.000    -0.000     0.000     0.000
   01/08/2020 16:45:00     -0.000    -0.000     0.000     0.000
   01/08/2020 17:00:00     -0.000    -0.000     0.000     0.000
   01/08/2020 17:15:00     -0.000    -0.000     0.000     0.000
   01/08/2020 17:30:00     -0.000    -0.000     0.000     0.000
   01/08/2020 17:45:00     -0.000    -0.000     0.000     0.000
   01/08/2020 18:00:00     -0.000    -0.000     0.000     0.000
   01/08/2020 18:15:00     -0.000    -0.000     0.000     0.000
   01/08/2020 18:30:00     -0.000    -0.000     0.000     0.000
   01/08/2020 18:45:00     -0.000    -0.000     0.000     0.000
   01/08/2020 19:00:00     -0.000    -0.000     0.000     0.000
   01/08/2020 19:15:00     -0.000    -0.000     0.000     0.000
   01/08/2020 19:30:00     -0.000    -0.000     0.000     0.000
   01/08/2020 19:45:00     -0.000    -0.000     0.000     0.000
   01/08/2020 20:00:00     -0.000    -0.000     0.000     0.000
   01/08/2020 20:15:00     -0.000    -0.000     0.000     0.000
   01/08/2020 20:30:00     -0.000    -0.000     0.000     0.000
   01/08/2020 20:45:00     -0.000    -0.000     0.000     0.000
   01/08/2020 21:00:00     -0.000    -0.000     0.000     0.000
   01/08/2020 21:15:00     -0.000    -0.000     0.000     0.000
   01/08/2020 21:30:00     -0.000    -0.000     0.000     0.000
   01/08/2020 21:45:00     -0.000    -0.000     0.000     0.000
   01/08/2020 22:00:00     -0.000    -0.000     0.000     0.000
   01/08/2020 22:15:00     -0.000    -0.000     0.000     0.000
   01/08/2020 22:30:00     -0.000    -0.000     0.000     0.000
   01/08/2020 22:45:00     -0.000    -0.000     0.000     0.000
   01/08/2020 23:00:00     -0.000    -0.000     0.000     0.000
   01/08/2020 23:15:00     -0.000    -0.000     0.000     0.000
   01/08/2020 23:30:00     -0.000    -0.000     0.000     0.000
   01/08/2020 23:45:00     -0.000    -0.000     0.000     0.000
   01/09/2020 00:00:00     -0.000    -0.000     0.000     0.000
  

  Analysis begun on:  Wed Dec 29 11:50:48 2021
  Analysis ended on:  Wed Dec 29 12:21:03 2021
  Total elapsed time: 00:30:15