
  EPA STORM WATER MANAGEMENT MODEL - VERSION 5.1 (Build 5.1.015)
  --------------------------------------------------------------

  WARNING 04: minimum elevation drop used for Conduit 28
  WARNING 04: minimum elevation drop used for Conduit 39
  WARNING 04: minimum elevation drop used for Conduit 43
  WARNING 04: minimum elevation drop used for Conduit 48
  WARNING 04: minimum elevation drop used for Conduit 76
  WARNING 04: minimum elevation drop used for Conduit 78
  WARNING 04: minimum elevation drop used for Conduit 80
  WARNING 04: minimum elevation drop used for Conduit 85
  WARNING 08: elevation drop exceeds length for Conduit 92
  WARNING 04: minimum elevation drop used for Conduit 147
  WARNING 02: maximum depth increased for Node 1
  WARNING 02: maximum depth increased for Node 2
  WARNING 02: maximum depth increased for Node 70
  WARNING 02: maximum depth increased for Node 72
  WARNING 02: maximum depth increased for Node 91
  
  *********************************************************
  NOTE: The summary statistics displayed in this report are
  based on results found at every computational time step,  
  not just on results from each reporting time step.
  *********************************************************
  
  ****************
  Analysis Options
  ****************
  Flow Units ............... CFS
  Process Models:
    Rainfall/Runoff ........ NO
    RDII ................... NO
    Snowmelt ............... NO
    Groundwater ............ NO
    Flow Routing ........... YES
    Ponding Allowed ........ YES
    Water Quality .......... NO
  Flow Routing Method ...... DYNWAVE
  Surcharge Method ......... EXTRAN
  Starting Date ............ 01/01/2020 00:00:00
  Ending Date .............. 01/09/2020 00:00:00
  Antecedent Dry Days ...... 0.0
  Report Time Step ......... 00:15:00
  Routing Time Step ........ 30.00 sec
  Variable Time Step ....... YES
  Maximum Trials ........... 10
  Number of Threads ........ 1
  Head Tolerance ........... 0.005000 ft
  
  
  **************************        Volume        Volume
  Flow Routing Continuity        acre-feet      10^6 gal
  **************************     ---------     ---------
  Dry Weather Inflow .......         0.000         0.000
  Wet Weather Inflow .......         0.000         0.000
  Groundwater Inflow .......         0.000         0.000
  RDII Inflow ..............         0.000         0.000
  External Inflow ..........     34213.825     11149.086
  External Outflow .........       651.551       212.318
  Flooding Loss ............     33032.074     10763.995
  Evaporation Loss .........         0.000         0.000
  Exfiltration Loss ........         0.000         0.000
  Initial Stored Volume ....        -0.306        -0.100
  Final Stored Volume ......       457.390       149.047
  Continuity Error (%) .....         0.212
  
  
  *************************
  Highest Continuity Errors
  *************************
  Node 3 (86.52%)
  Node 50 (23.09%)
  Node 51 (22.23%)
  Node 90 (20.44%)
  Node 87 (17.96%)
  
  
  ***************************
  Time-Step Critical Elements
  ***************************
  Link 103 (282.79%)
  Link 6 (272.84%)
  Link 15 (179.93%)
  Link 35 (33.75%)
  Link 46 (22.39%)
  
  
  ********************************
  Highest Flow Instability Indexes
  ********************************
  Link 85 (100)
  Link 40 (100)
  Link 20 (97)
  Link 39 (96)
  Link 80 (96)
  
  
  *************************
  Routing Time Step Summary
  *************************
  Minimum Time Step           :     4.64 sec
  Average Time Step           :    12.11 sec
  Maximum Time Step           :    30.00 sec
  Percent in Steady State     :    94.79
  Average Iterations per Step :     7.91
  Percent Not Converging      :   424.54
  Time Step Frequencies       :
     30.000 -  3.817 sec      :   100.00 %
      3.817 -  0.486 sec      :     0.00 %
      0.486 -  0.062 sec      :     0.00 %
      0.062 -  0.008 sec      :     0.00 %
      0.008 -  0.001 sec      :     0.00 %
  
  
  ******************
  Node Depth Summary
  ******************
  
  ---------------------------------------------------------------------------------
                                 Average  Maximum  Maximum  Time of Max    Reported
                                   Depth    Depth      HGL   Occurrence   Max Depth
  Node                 Type         Feet     Feet     Feet  days hr:min        Feet
  ---------------------------------------------------------------------------------
  1                    JUNCTION     0.00     0.00    10.01     0  00:00        0.00
  2                    JUNCTION     0.00     0.00     8.99     0  00:00        0.00
  3                    JUNCTION     3.15     3.15    -0.07     7  19:21        3.15
  4                    JUNCTION     1.49     1.49    -0.07     7  17:26        1.49
  5                    JUNCTION     0.00     0.00     8.59     7  14:00        0.00
  6                    JUNCTION     4.59     4.77     6.44     7  23:48        4.71
  7                    JUNCTION     8.52     8.70     6.44     7  23:38        8.68
  8                    JUNCTION    54.25    54.53     6.54     7  20:13       54.44
  9                    JUNCTION    54.22    54.51     6.55     7  20:13       54.41
  10                   JUNCTION    82.13    82.44     6.57     7  23:37       82.30
  11                   JUNCTION    92.08    92.51     6.70     7  22:57       92.33
  12                   JUNCTION    24.70    25.22     6.79     7  16:50       25.03
  13                   JUNCTION    18.07    18.62     6.82     7  16:50       18.40
  14                   JUNCTION    17.97    18.51     6.82     7  16:50       18.29
  15                   JUNCTION    30.76    31.19     6.71     7  23:37       31.04
  16                   JUNCTION    14.20    14.62     6.70     7  16:36       14.40
  19                   JUNCTION    25.27    25.42     6.62     7  18:25       25.32
  20                   JUNCTION    30.27    30.39     6.59     7  16:49       30.34
  21                   JUNCTION    27.47    27.59     6.59     7  16:49       27.54
  22                   JUNCTION    18.97    19.06     6.56     7  16:14       19.03
  23                   JUNCTION    11.67    11.72     6.52     7  16:13       11.71
  24                   JUNCTION     0.00     0.02     6.52     7  16:15        0.02
  25                   JUNCTION     0.03     0.15     6.45     7  23:40        0.11
  26                   JUNCTION    17.86    18.03     6.43     7  23:48       17.98
  27                   JUNCTION    18.16    18.27     6.37     7  23:48       18.24
  28                   JUNCTION    14.26    14.35     6.35     7  23:50       14.32
  29                   JUNCTION    14.26    14.34     6.34     7  23:51       14.33
  30                   JUNCTION    27.96    28.05     6.35     7  23:53       28.04
  31                   JUNCTION    28.06    28.16     6.36     7  23:53       28.15
  32                   JUNCTION    53.86    53.99     6.39     7  23:51       53.94
  33                   JUNCTION    50.76    50.89     6.39     7  23:52       50.88
  34                   JUNCTION    17.96    18.08     6.38     7  23:53       18.07
  35                   JUNCTION     0.00     0.00    21.17     0  00:00        0.00
  36                   JUNCTION     1.15     1.17     6.47     7  16:16        1.16
  37                   JUNCTION     1.05     1.06     6.46     7  20:54        1.06
  38                   JUNCTION    19.45    19.47     6.47     7  20:22       19.46
  39                   JUNCTION    19.75    19.82     6.52     7  19:08       19.79
  40                   JUNCTION    40.65    40.77     6.57     7  14:59       40.71
  41                   JUNCTION    40.65    40.73     6.53     7  18:08       40.68
  42                   JUNCTION    67.95    68.02     6.52     7  14:35       67.99
  43                   JUNCTION    71.34    71.43     6.53     7  23:27       71.38
  44                   JUNCTION    32.64    32.68     6.48     7  21:42       32.66
  45                   JUNCTION    32.64    32.68     6.48     7  21:43       32.66
  46                   JUNCTION    22.85    22.93     6.53     7  20:40       22.88
  47                   JUNCTION    22.95    23.07     6.57     7  22:20       23.00
  48                   JUNCTION    34.25    34.37     6.57     7  22:20       34.28
  49                   JUNCTION    20.75    20.87     6.57     7  22:20       20.79
  50                   JUNCTION    20.75    20.87     6.57     7  22:20       20.78
  51                   JUNCTION    16.95    17.01     6.51     7  18:12       16.98
  52                   JUNCTION     3.45     3.49     6.49     7  15:57        3.48
  53                   JUNCTION     0.00     0.00   -22.10     0  00:00        0.00
  54                   JUNCTION     0.00     0.00    -0.90     0  00:00        0.00
  55                   JUNCTION     0.00     0.00     0.00     0  00:00        0.00
  56                   JUNCTION     0.00     0.00   -13.70     0  00:00        0.00
  57                   JUNCTION     0.00     0.00   -13.20     0  00:00        0.00
  58                   JUNCTION     0.00     0.00   -20.50     0  00:00        0.00
  59                   JUNCTION     0.00     0.00   -20.60     0  00:00        0.00
  60                   JUNCTION     0.00     0.00     7.19     0  00:00        0.00
  61                   JUNCTION     0.00     0.00    12.80     0  00:00        0.00
  62                   JUNCTION     0.00     0.00    15.00     0  00:00        0.00
  63                   JUNCTION     0.00     0.00    22.00     0  00:00        0.00
  64                   JUNCTION     0.00     0.00    18.00     0  00:00        0.00
  65                   JUNCTION     0.00     0.00    11.00     7  14:00        0.00
  66                   JUNCTION     9.26     9.34     6.34     7  23:33        9.33
  67                   JUNCTION    11.96    12.04     6.34     7  23:51       12.03
  70                   JUNCTION    32.26    32.37     6.37     7  23:52       32.35
  71                   JUNCTION    17.45    17.56     6.37     7  23:44       17.55
  72                   JUNCTION     0.00     0.00   -16.30     0  00:00        0.00
  73                   JUNCTION     0.00     0.00   -17.00     0  00:00        0.00
  74                   JUNCTION     0.00     0.00    -5.00     0  00:00        0.00
  75                   JUNCTION     0.00     0.00   -11.90     0  00:00        0.00
  76                   JUNCTION     0.00     0.00    -3.00     0  00:00        0.00
  77                   JUNCTION     0.00     0.00    -6.25     0  00:00        0.00
  78                   JUNCTION     0.00     0.00   -19.70     0  00:00        0.00
  79                   JUNCTION     0.00     0.00   -19.70     0  00:00        0.00
  80                   JUNCTION     0.00     0.00   -12.60     0  00:00        0.00
  81                   JUNCTION     0.00     0.00   -12.60     0  00:00        0.00
  82                   JUNCTION     0.00     0.00    -5.00     0  00:00        0.00
  83                   JUNCTION    22.55    22.63     6.53     7  19:07       22.57
  84                   JUNCTION    22.55    22.62     6.52     7  20:53       22.58
  85                   JUNCTION    50.15    50.22     6.52     7  20:53       50.19
  86                   JUNCTION    57.75    57.82     6.52     7  19:39       57.77
  87                   JUNCTION    46.45    46.48     6.48     7  19:05       46.46
  88                   JUNCTION    43.45    43.47     6.47     7  20:24       43.46
  89                   JUNCTION    43.45    43.51     6.51     7  19:27       43.48
  90                   JUNCTION    29.44    29.52     6.52     7  20:33       29.47
  91                   JUNCTION    11.25    11.28     6.48     7  20:33       11.27
  92                   JUNCTION     7.24     7.27     6.47     7  20:33        7.26
  18                   JUNCTION     0.00     0.00   -16.30     0  00:00        0.00
  100                  JUNCTION     0.00     0.00   -28.62     0  00:00        0.00
  102                  JUNCTION     0.00     0.00   -25.64     0  00:00        0.00
  103                  JUNCTION     0.00     0.00   -22.38     0  00:00        0.00
  104                  JUNCTION     0.00     0.00   -22.37     0  00:00        0.00
  105                  JUNCTION     0.00     0.00   -20.44     0  00:00        0.00
  106                  JUNCTION     0.00     0.00   -12.12     0  00:00        0.00
  107                  JUNCTION     0.00     0.00   -14.89     0  00:00        0.00
  108                  JUNCTION     0.00     0.00    -6.80     0  00:00        0.00
  109                  JUNCTION     0.00     0.00   -20.88     0  00:00        0.00
  110                  JUNCTION     0.00     0.00   -20.91     0  00:00        0.00
  111                  JUNCTION     0.00     0.00   -20.98     0  00:00        0.00
  112                  JUNCTION     0.00     0.00   -21.00     0  00:00        0.00
  113                  JUNCTION     0.00     0.00   -80.80     0  00:00        0.00
  114                  JUNCTION     0.00     0.00   -83.18     0  00:00        0.00
  115                  JUNCTION     0.00     0.00   -71.75     0  00:00        0.00
  116                  JUNCTION     0.00     0.00   -71.87     0  00:00        0.00
  117                  JUNCTION     0.00     0.00   -98.50     0  00:00        0.00
  118                  JUNCTION     0.00     0.00   -22.98     0  00:00        0.00
  119                  JUNCTION     0.00     0.00   -20.15     0  00:00        0.00
  120                  JUNCTION     0.00     0.00   -17.42     0  00:00        0.00
  121                  JUNCTION     0.00     0.00    -3.19     0  00:00        0.00
  122                  JUNCTION     0.00     0.00    -3.43     0  00:00        0.00
  123                  JUNCTION     0.00     0.00   -10.64     0  00:00        0.00
  124                  JUNCTION     0.00     0.00    -6.50     0  00:00        0.00
  125                  JUNCTION     0.00     0.00    -7.20     0  00:00        0.00
  126                  JUNCTION     0.00     0.00   -19.38     0  00:00        0.00
  127                  JUNCTION     0.00     0.00   -11.21     0  00:00        0.00
  128                  JUNCTION     0.00     0.00   -11.70     0  00:00        0.00
  129                  JUNCTION     0.00     0.00   -14.32     0  00:00        0.00
  130                  JUNCTION     0.00     0.00    -5.69     0  00:00        0.00
  131                  JUNCTION     0.00     0.00    31.65     0  00:00        0.00
  132                  JUNCTION     0.00     0.00    31.36     0  00:00        0.00
  133                  JUNCTION     0.00     0.00    40.24     0  00:00        0.00
  134                  JUNCTION     0.00     0.00    44.72     0  00:00        0.00
  135                  JUNCTION     0.00     0.00    44.62     0  00:00        0.00
  136                  JUNCTION     0.00     0.00    44.35     0  00:00        0.00
  137                  JUNCTION     0.00     0.00    34.51     0  00:00        0.00
  138                  JUNCTION     0.00     0.00    52.23     0  00:00        0.00
  139                  JUNCTION     0.00     0.00    49.93     0  00:00        0.00
  140                  JUNCTION     0.00     0.00    45.20     0  00:00        0.00
  141                  JUNCTION     0.00     0.00    49.13     0  00:00        0.00
  142                  JUNCTION     0.00     0.00    40.05     0  00:00        0.00
  143                  JUNCTION     0.00     0.00    39.90     0  00:00        0.00
  148                  JUNCTION     0.00     0.00   -26.26     0  00:00        0.00
  68                   OUTFALL      0.00     0.00     6.50     0  00:00        0.00
  69                   OUTFALL      0.00     0.00     5.00     0  00:00        0.00
  93                   OUTFALL      0.00     0.00    13.89     0  00:00        0.00
  94                   OUTFALL      0.00     0.00    10.51     0  00:00        0.00
  95                   OUTFALL      0.00     0.00    12.70     0  00:00        0.00
  96                   OUTFALL      0.00     0.00    31.60     0  00:00        0.00
  97                   OUTFALL      0.00     0.00    17.55     0  00:00        0.00
  98                   OUTFALL      0.00     0.00    11.00     0  00:00        0.00
  99                   OUTFALL      0.24     0.70     6.80     7  23:38        0.62
  101                  OUTFALL      0.00     0.00    11.89     0  00:00        0.00
  144                  OUTFALL      0.00     0.00    32.22     0  00:00        0.00
  145                  OUTFALL      0.00     0.00     8.00     0  00:00        0.00
  146                  OUTFALL      0.00     0.00    39.90     0  00:00        0.00
  147                  OUTFALL      0.00     0.00    15.00     0  00:00        0.00
  
  
  *******************
  Node Inflow Summary
  *******************
  
  -------------------------------------------------------------------------------------------------
                                  Maximum  Maximum                  Lateral       Total        Flow
                                  Lateral    Total  Time of Max      Inflow      Inflow     Balance
                                   Inflow   Inflow   Occurrence      Volume      Volume       Error
  Node                 Type           CFS      CFS  days hr:min    10^6 gal    10^6 gal     Percent
  -------------------------------------------------------------------------------------------------
  1                    JUNCTION      0.00     0.00     0  00:00           0           0       0.000 gal
  2                    JUNCTION      0.00     0.00     0  00:00           0           0       0.000 gal
  3                    JUNCTION      0.00     0.00     7  19:20           0        4.19     642.086
  4                    JUNCTION      0.00     0.00     7  17:25           0        4.32       4.183
  5                    JUNCTION      0.00     0.00     0  00:00           0        4.29       0.257
  6                    JUNCTION      0.00    95.34     7  19:40           0         167       0.516
  7                    JUNCTION      0.00    79.80     7  19:33           0         160       0.651
  8                    JUNCTION      0.00    80.29     7  19:33           0         202       0.884
  9                    JUNCTION      0.00    76.32     7  19:33           0         205       0.540
  10                   JUNCTION      0.00    75.76     7  19:33           0         196       1.986
  11                   JUNCTION      0.00    75.19     7  19:33           0         171       2.546
  12                   JUNCTION      0.00    72.99     7  19:33           0         169       0.340
  13                   JUNCTION      0.00    73.33     7  19:32           0         165       0.480
  14                   JUNCTION      0.00    87.84     7  19:32           0         166       1.955
  15                   JUNCTION      0.00    88.82     7  19:32           0         165       1.961
  16                   JUNCTION      0.00   117.36     7  16:49           0         172      -2.772
  19                   JUNCTION      0.00     6.60     7  14:03           0    1.06e+04       0.037
  20                   JUNCTION      0.00    71.30     7  21:25           0         166       2.972
  21                   JUNCTION      0.00    17.28     7  14:17           0         162       1.997
  22                   JUNCTION      0.00    17.09     7  18:26           0         159       1.999
  23                   JUNCTION      0.00    19.91     7  14:04           0         155       1.123
  24                   JUNCTION      0.00     6.98     7  16:14           0         168       0.000
  25                   JUNCTION      0.00    26.40     7  23:48           0        93.7       0.031
  26                   JUNCTION      0.00   124.40     7  19:40           0         188       2.430
  27                   JUNCTION      0.00   131.37     7  19:41           0         115       3.255
  28                   JUNCTION      0.00   144.62     7  19:41           0         114       2.649
  29                   JUNCTION      0.00   144.40     7  19:56           0         116       2.482
  30                   JUNCTION      0.00   120.80     7  15:34           0         104       7.693
  31                   JUNCTION      0.00   114.43     7  15:33           0         302       2.128
  32                   JUNCTION      0.00    28.89     7  19:46           0         270       1.083
  33                   JUNCTION      0.00    26.24     7  19:45           0         266       1.105
  34                   JUNCTION      0.00    25.16     7  19:46           0         408       0.702
  35                   JUNCTION      0.00     0.00     0  00:00           0           0       0.000 gal
  36                   JUNCTION      0.00     9.02     7  14:09           0        6.04       6.306
  37                   JUNCTION      0.00    15.79     7  14:08           0        13.9       1.968
  38                   JUNCTION      0.00    27.73     7  17:50           0        99.2       6.387
  39                   JUNCTION      0.00    18.69     7  16:20           0          84       4.436
  40                   JUNCTION      0.00    91.66     7  14:59           0        86.6      15.347
  41                   JUNCTION      0.00    51.60     7  18:08           0          40       8.230
  42                   JUNCTION      0.00    11.24     7  16:43           0        36.3       9.123
  43                   JUNCTION      0.00     9.54     7  22:21           0        33.2       8.311
  44                   JUNCTION      0.00    16.31     7  15:44           0        30.9       9.865
  45                   JUNCTION      0.00    14.34     7  22:20           0        27.6      18.467
  46                   JUNCTION      0.00    16.97     7  22:18           0        22.1      18.116
  47                   JUNCTION      0.00    13.93     7  22:20           0        18.4      11.532
  48                   JUNCTION      0.00    13.15     7  22:19           0        16.7      13.265
  49                   JUNCTION      0.00    18.02     7  21:13           0        15.2      24.077
  50                   JUNCTION      0.00    17.21     7  16:28           0        12.6      30.018
  51                   JUNCTION      0.00    12.65     7  22:19           0          10      28.577
  52                   JUNCTION      0.00    16.38     7  22:19           0        4.48       7.860
  53                   JUNCTION      0.00     0.00     0  00:00           0           0       0.000 gal
  54                   JUNCTION      0.00     0.00     0  00:00           0           0       0.000 gal
  55                   JUNCTION      0.00     0.00     0  00:00           0           0       0.000 gal
  56                   JUNCTION      0.00     0.00     0  00:00           0           0       0.000 gal
  57                   JUNCTION      0.00     0.00     0  00:00           0           0       0.000 gal
  58                   JUNCTION      0.00     0.00     0  00:00           0           0       0.000 gal
  59                   JUNCTION      0.00     0.00     0  00:00           0           0       0.000 gal
  60                   JUNCTION      0.00     0.00     0  00:00           0           0       0.000 gal
  61                   JUNCTION      0.00     0.00     0  00:00           0           0       0.000 gal
  62                   JUNCTION      0.00     0.00     0  00:00           0           0       0.000 gal
  63                   JUNCTION      0.00     0.00     0  00:00           0           0       0.000 gal
  64                   JUNCTION      0.00     0.00     0  00:00           0           0       0.000 gal
  65                   JUNCTION      0.00     0.00     0  00:00           0       0.041       0.151
  66                   JUNCTION      0.00    32.96     7  21:47           0        17.7      15.596
  67                   JUNCTION      0.00    79.05     7  19:36           0        70.7       4.293
  70                   JUNCTION      0.00    43.25     7  19:56           0         262       1.875
  71                   JUNCTION      0.00    31.99     7  23:02           0        44.9       6.141
  72                   JUNCTION      0.00     0.00     0  00:00           0           0       0.000 gal
  73                   JUNCTION      0.00     0.00     0  00:00           0           0       0.000 gal
  74                   JUNCTION      0.00     0.00     0  00:00           0           0       0.000 gal
  75                   JUNCTION      0.00     0.00     0  00:00           0           0       0.000 gal
  76                   JUNCTION      0.00     0.00     0  00:00           0           0       0.000 gal
  77                   JUNCTION      0.00     0.00     0  00:00           0           0       0.000 gal
  78                   JUNCTION      0.00     0.00     0  00:00           0           0       0.000 gal
  79                   JUNCTION      0.00     0.00     0  00:00           0           0       0.000 gal
  80                   JUNCTION      0.00     0.00     0  00:00           0           0       0.000 gal
  81                   JUNCTION      0.00     0.00     0  00:00           0           0       0.000 gal
  82                   JUNCTION      0.00     0.00     0  00:00           0           0       0.000 gal
  83                   JUNCTION      0.00    34.69     7  14:59           0        42.4      26.134
  84                   JUNCTION      0.00    26.99     7  15:48           0        40.5      11.102
  85                   JUNCTION      0.00    24.22     7  23:40           0        35.5       4.431
  86                   JUNCTION      0.00    20.47     7  17:00           0        34.8       4.145
  87                   JUNCTION      0.00    61.07     7  23:09           0        34.8      21.887
  88                   JUNCTION      0.00    42.45     7  23:09           0        30.7      20.642
  89                   JUNCTION      0.00    11.40     7  17:20           0        19.2      17.910
  90                   JUNCTION      0.00     8.72     7  19:04           0        15.5      25.694
  91                   JUNCTION      0.00    12.49     7  14:17           0        10.1       7.504
  92                   JUNCTION      0.00     7.84     7  19:08           0        4.38      19.315
  18                   JUNCTION      0.00     0.00     0  00:00           0           0       0.000 gal
  100                  JUNCTION      0.00     0.00     0  00:00           0           0       0.000 gal
  102                  JUNCTION      0.00     0.00     0  00:00           0           0       0.000 gal
  103                  JUNCTION      0.00     0.00     0  00:00           0           0       0.000 gal
  104                  JUNCTION      0.00     0.00     0  00:00           0           0       0.000 gal
  105                  JUNCTION      0.00     0.00     0  00:00           0           0       0.000 gal
  106                  JUNCTION      0.00     0.00     0  00:00           0           0       0.000 gal
  107                  JUNCTION      0.00     0.00     0  00:00           0           0       0.000 gal
  108                  JUNCTION      0.00     0.00     0  00:00           0           0       0.000 gal
  109                  JUNCTION      0.00     0.00     0  00:00           0           0       0.000 gal
  110                  JUNCTION      0.00     0.00     0  00:00           0           0       0.000 gal
  111                  JUNCTION      0.00     0.00     0  00:00           0           0       0.000 gal
  112                  JUNCTION      0.00     0.00     0  00:00           0           0       0.000 gal
  113                  JUNCTION      0.00     0.00     0  00:00           0           0       0.000 gal
  114                  JUNCTION      0.00     0.00     0  00:00           0           0       0.000 gal
  115                  JUNCTION      0.00     0.00     0  00:00           0           0       0.000 gal
  116                  JUNCTION      0.00     0.00     0  00:00           0           0       0.000 gal
  117                  JUNCTION      0.00     0.00     0  00:00           0           0       0.000 gal
  118                  JUNCTION      0.00     0.00     0  00:00           0           0       0.000 gal
  119                  JUNCTION      0.00     0.00     0  00:00           0           0       0.000 gal
  120                  JUNCTION      0.00     0.00     0  00:00           0           0       0.000 gal
  121                  JUNCTION      0.00     0.00     0  00:00           0           0       0.000 gal
  122                  JUNCTION      0.00     0.00     0  00:00           0           0       0.000 gal
  123                  JUNCTION      0.00     0.00     0  00:00           0           0       0.000 gal
  124                  JUNCTION      0.00     0.00     0  00:00           0           0       0.000 gal
  125                  JUNCTION      0.00     0.00     0  00:00           0           0       0.000 gal
  126                  JUNCTION      0.00     0.00     0  00:00           0           0       0.000 gal
  127                  JUNCTION      0.00     0.00     0  00:00           0           0       0.000 gal
  128                  JUNCTION      0.00     0.00     0  00:00           0           0       0.000 gal
  129                  JUNCTION      0.00     0.00     0  00:00           0           0       0.000 gal
  130                  JUNCTION      0.00     0.00     0  00:00           0           0       0.000 gal
  131                  JUNCTION      0.00     0.00     0  00:00           0           0       0.000 gal
  132                  JUNCTION      0.00     0.00     0  00:00           0           0       0.000 gal
  133                  JUNCTION      0.00     0.00     0  00:00           0           0       0.000 gal
  134                  JUNCTION      0.00     0.00     0  00:00           0           0       0.000 gal
  135                  JUNCTION      0.00     0.00     0  00:00           0           0       0.000 gal
  136                  JUNCTION      0.00     0.00     0  00:00           0           0       0.000 gal
  137                  JUNCTION      0.00     0.00     0  00:00           0           0       0.000 gal
  138                  JUNCTION      0.00     0.00     0  00:00           0           0       0.000 gal
  139                  JUNCTION      0.00     0.00     0  00:00           0           0       0.000 gal
  140                  JUNCTION      0.00     0.00     0  00:00           0           0       0.000 gal
  141                  JUNCTION      0.00     0.00     0  00:00           0           0       0.000 gal
  142                  JUNCTION      0.00     0.00     0  00:00           0           0       0.000 gal
  143                  JUNCTION      0.00     0.00     0  00:00           0           0       0.000 gal
  148                  JUNCTION      0.00     0.00     0  00:00           0           0       0.000 gal
  68                   OUTFALL       0.00     0.00     0  00:00           0           0       0.000 gal
  69                   OUTFALL       0.00     0.00     0  00:00           0           0       0.000 gal
  93                   OUTFALL       0.00     0.00     0  00:00           0           0       0.000 gal
  94                   OUTFALL       0.00     0.00     0  00:00           0        0.62       0.000
  95                   OUTFALL       0.00     0.00     0  00:00           0           0       0.000 gal
  96                   OUTFALL       0.00     0.00     0  00:00           0           0       0.000 gal
  97                   OUTFALL       0.00     0.00     0  00:00           0           0       0.000 gal
  98                   OUTFALL       0.00     0.00     0  00:00           0        46.7       0.000
  99                   OUTFALL       0.00   157.84     7  23:38           0         187       0.000
  101                  OUTFALL       0.00     0.00     0  00:00           0           0       0.000 gal
  144                  OUTFALL       0.00     0.00     0  00:00           0           0       0.000 gal
  145                  OUTFALL       0.00     0.00     0  00:00           0           0       0.000 gal
  146                  OUTFALL       0.00     0.00     0  00:00           0           0       0.000 gal
  147                  OUTFALL       0.00     0.00     0  00:00           0           0       0.000 gal
  
  
  **********************
  Node Surcharge Summary
  **********************
  
  Surcharging occurs when water rises above the top of the highest conduit.
  ---------------------------------------------------------------------
                                               Max. Height   Min. Depth
                                   Hours       Above Crown    Below Rim
  Node                 Type      Surcharged           Feet         Feet
  ---------------------------------------------------------------------
  8                    JUNCTION       10.01         28.528        5.472
  9                    JUNCTION       10.01         28.513        5.487
  10                   JUNCTION       10.01         62.943        2.557
  11                   JUNCTION       10.01         73.006        2.494
  12                   JUNCTION       10.01          5.723        4.777
  13                   JUNCTION       10.01          1.616        6.384
  14                   JUNCTION       10.01          1.514        6.486
  15                   JUNCTION       10.01         14.191        8.809
  19                   JUNCTION       10.01         10.117        4.583
  20                   JUNCTION       10.01         12.392        9.608
  21                   JUNCTION       10.01          9.586       12.414
  22                   JUNCTION       10.01          3.057       20.943
  32                   JUNCTION       10.01         37.894       26.006
  33                   JUNCTION       10.01         34.790       29.110
  39                   JUNCTION       10.01          0.516       20.184
  40                   JUNCTION       10.01         21.474       19.226
  41                   JUNCTION       10.01         23.730       19.270
  42                   JUNCTION       10.01         51.020       11.980
  43                   JUNCTION       10.01         54.427        8.573
  46                   JUNCTION       10.01          6.226       27.074
  47                   JUNCTION       10.01          6.367       26.933
  48                   JUNCTION       10.01         18.672       25.628
  49                   JUNCTION       10.01          4.674       29.126
  50                   JUNCTION       10.01          4.669       29.131
  51                   JUNCTION       10.01          0.812       12.988
  83                   JUNCTION       10.01          7.628       12.372
  84                   JUNCTION       10.01          6.018       12.382
  85                   JUNCTION       10.01         33.619       19.781
  86                   JUNCTION       10.01         41.220       12.180
  89                   JUNCTION       10.01         26.912        6.488
  90                   JUNCTION       10.01         12.915       10.485
  
  
  *********************
  Node Flooding Summary
  *********************
  
  No nodes were flooded.
  
  
  ***********************
  Outfall Loading Summary
  ***********************
  
  -----------------------------------------------------------
                         Flow       Avg       Max       Total
                         Freq      Flow      Flow      Volume
  Outfall Node           Pcnt       CFS       CFS    10^6 gal
  -----------------------------------------------------------
  68                     0.00      0.00      0.00       0.000
  69                     0.00      0.00      0.00       0.000
  93                     0.00      0.00      0.00       0.000
  94                     0.00      0.00      0.00       0.620
  95                     0.00      0.00      0.00       0.000
  96                     0.00      0.00      0.00       0.000
  97                     0.00      0.00      0.00       0.000
  98                     0.00      0.00      0.00      46.655
  99                    95.16     34.50    157.84     186.623
  101                    0.00      0.00      0.00       0.000
  144                    0.00      0.00      0.00       0.000
  145                    0.00      0.00      0.00       0.000
  146                    0.00      0.00      0.00       0.000
  147                    0.00      0.00      0.00       0.000
  -----------------------------------------------------------
  System                 6.80     34.50    157.84     233.897
  
  
  ********************
  Link Flow Summary
  ********************
  
  -----------------------------------------------------------------------------
                                 Maximum  Time of Max   Maximum    Max/    Max/
                                  |Flow|   Occurrence   |Veloc|    Full    Full
  Link                 Type          CFS  days hr:min    ft/sec    Flow   Depth
  -----------------------------------------------------------------------------
  1                    CONDUIT      0.00     0  00:00      0.00    0.00    0.00
  2                    CONDUIT      0.00     0  00:00      0.00    0.00    0.10
  3                    CONDUIT      0.00     7  19:20      0.00    0.00    0.17
  4                    CONDUIT      0.00     0  00:00      0.00    0.00    0.05
  5                    CONDUIT      0.00     0  00:00      0.00    0.00    0.15
  6                    CONDUIT     93.33     7  19:34      0.43    0.01    0.42
  7                    CONDUIT     79.80     7  19:33      0.26    0.00    0.72
  8                    CONDUIT     80.29     7  19:33      0.10    0.03    1.00
  9                    CONDUIT     76.32     7  19:33      0.21    0.01    1.00
  10                   CONDUIT     75.76     7  19:33      0.21    0.01    1.00
  11                   CONDUIT     75.19     7  19:33      0.21    0.00    1.00
  12                   CONDUIT     72.99     7  19:33      0.14    0.00    1.00
  13                   CONDUIT     73.33     7  19:32      0.15    0.06    1.00
  14                   CONDUIT     87.84     7  19:32      0.18    0.01    1.00
  15                   CONDUIT    100.39     7  23:29      0.23    0.00    0.93
  19                   CONDUIT      6.64     7  22:15      0.01    0.00    1.00
  20                   CONDUIT     66.33     7  21:25      0.07    0.00    1.00
  21                   CONDUIT     16.92     7  14:04      0.03    0.00    1.00
  22                   CONDUIT     19.91     7  14:04      0.04    0.00    0.89
  23                   CONDUIT      6.98     7  16:14      0.06    0.00    0.31
  24                   CONDUIT      0.05     7  16:58      0.06    0.00    0.01
  25                   CONDUIT     26.40     7  23:48      0.11    0.00    0.30
  26                   CONDUIT    123.88     7  19:40      0.31    0.05    0.77
  27                   CONDUIT    131.37     7  19:41      0.19    0.01    0.86
  28                   CONDUIT    144.62     7  19:41      0.18    0.35    0.80
  29                   CONDUIT     64.82     7  19:56      0.16    0.01    0.94
  30                   CONDUIT    120.80     7  15:34      0.07    0.01    0.94
  31                   CONDUIT     28.89     7  19:46      0.07    0.00    1.00
  32                   CONDUIT     26.24     7  19:45      0.06    0.00    1.00
  33                   CONDUIT     25.37     7  19:41      0.06    0.00    1.00
  34                   CONDUIT      0.00     0  00:00      0.00    0.00    0.04
  35                   CONDUIT      9.02     7  14:09      0.13    0.00    0.04
  36                   CONDUIT     14.85     7  14:08      0.05    0.00    0.34
  37                   CONDUIT     27.55     7  17:50      0.03    0.00    1.00
  38                   CONDUIT     15.52     7  16:20      0.04    0.00    1.00
  39                   CONDUIT     55.61     7  14:59      0.06    0.15    1.00
  40                   CONDUIT     10.67     7  23:40      0.02    0.00    1.00
  41                   CONDUIT      9.54     7  22:21      0.04    0.00    1.00
  42                   CONDUIT     10.62     7  22:20      0.05    0.00    1.00
  43                   CONDUIT     16.31     7  15:44      0.03    0.10    0.97
  44                   CONDUIT     16.97     7  22:18      0.05    0.00    1.00
  45                   CONDUIT     13.93     7  22:20      0.04    0.02    1.00
  46                   CONDUIT     13.15     7  22:19      0.04    0.00    1.00
  47                   CONDUIT     10.45     7  21:41      0.03    0.00    1.00
  48                   CONDUIT     17.21     7  16:28      0.02    0.05    1.00
  49                   CONDUIT     12.65     7  22:19      0.03    0.00    1.00
  50                   CONDUIT     16.38     7  22:19      0.05    0.00    0.61
  51                   CONDUIT      0.00     0  00:00      0.00    0.00    0.00
  52                   CONDUIT      0.00     0  00:00      0.00    0.00    0.00
  53                   CONDUIT      0.00     0  00:00      0.00    0.00    0.00
  54                   CONDUIT      0.00     0  00:00      0.00    0.00    0.00
  55                   CONDUIT      0.00     0  00:00      0.00    0.00    0.00
  56                   CONDUIT      0.00     0  00:00      0.00    0.00    0.00
  57                   CONDUIT      0.00     0  00:00      0.00    0.00    0.00
  58                   CONDUIT      0.00     0  00:00      0.00    0.00    0.00
  59                   CONDUIT      0.00     0  00:00      0.00    0.00    0.00
  60                   CONDUIT      0.00     0  00:00      0.00    0.00    0.00
  61                   CONDUIT      0.00     0  00:00      0.00    0.00    0.00
  62                   CONDUIT      0.00     0  00:00      0.00    0.00    0.00
  63                   CONDUIT      0.00     0  00:00      0.00    0.00    0.30
  64                   CONDUIT     35.96     7  14:11      0.04    0.00    0.64
  65                   CONDUIT     51.22     7  19:56      0.12    0.00    0.85
  67                   CONDUIT     43.25     7  19:56      0.09    0.00    0.86
  68                   CONDUIT     31.99     7  23:02      0.03    0.00    1.00
  69                   CONDUIT      0.00     0  00:00      0.00    0.00    0.00
  70                   CONDUIT      0.00     0  00:00      0.00    0.00    0.00
  71                   CONDUIT      0.00     0  00:00      0.00    0.00    0.00
  72                   CONDUIT      0.00     0  00:00      0.00    0.00    0.00
  73                   CONDUIT      0.00     0  00:00      0.00    0.00    0.00
  74                   CONDUIT      0.00     0  00:00      0.00    0.00    0.00
  75                   CONDUIT      0.00     0  00:00      0.00    0.00    0.00
  76                   CONDUIT      0.00     0  00:00      0.00    0.00    0.00
  77                   CONDUIT      0.00     0  00:00      0.00    0.00    0.00
  78                   CONDUIT      0.00     0  00:00      0.00    0.00    0.00
  79                   CONDUIT      0.00     0  00:00      0.00    0.00    0.00
  80                   CONDUIT     34.69     7  14:59      0.02    0.06    1.00
  81                   CONDUIT     23.90     7  23:40      0.05    0.00    1.00
  82                   CONDUIT     17.20     7  22:58      0.03    0.00    1.00
  83                   CONDUIT     18.35     7  17:33      0.04    0.00    1.00
  84                   CONDUIT     44.75     7  23:09      0.02    0.00    0.90
  85                   CONDUIT     12.94     7  14:02      0.03    0.07    1.00
  86                   CONDUIT      7.97     7  17:00      0.02    0.00    1.00
  87                   CONDUIT     12.49     7  14:17      0.03    0.00    0.84
  88                   CONDUIT      7.89     7  20:36      0.06    0.00    0.23
  89                   CONDUIT      0.00     0  00:00      0.00    0.00    0.08
  90                   CONDUIT      2.12     7  16:15      0.01    0.00    0.50
  91                   CONDUIT     30.53     7  21:27      0.02    0.00    1.00
  92                   CONDUIT      0.00     0  00:00      0.00    0.00    0.16
  93                   CONDUIT    111.09     7  21:45      0.21    0.00    0.66
  94                   CONDUIT     79.13     7  19:41      0.44    0.02    1.00
  95                   CONDUIT      0.00     0  00:00      0.00    0.00    0.00
  96                   CONDUIT      0.00     0  00:00      0.00    0.00    0.00
  97                   CONDUIT      0.00     0  00:00      0.00    0.00    0.00
  98                   CONDUIT      0.00     0  00:00      0.00    0.00    0.00
  99                   CONDUIT      0.00     0  00:00      0.00    0.00    0.09
  100                  CONDUIT      0.00     0  00:00      0.00    0.00    0.12
  101                  CONDUIT      0.00     0  00:00      0.00    0.00    0.00
  102                  CONDUIT      0.00     0  00:00      0.00    0.00    0.29
  103                  CONDUIT    157.84     7  23:38      0.72    0.01    0.38
  104                  CONDUIT      0.00     0  00:00      0.00    0.00    0.36
  17                   CONDUIT      0.00     0  00:00      0.00    0.00    0.00
  18                   CONDUIT      0.00     0  00:00      0.00    0.00    0.00
  66                   CONDUIT      0.00     0  00:00      0.00    0.00    0.00
  105                  CONDUIT      0.00     0  00:00      0.00    0.00    0.00
  106                  CONDUIT      0.00     0  00:00      0.00    0.00    0.00
  107                  CONDUIT      0.00     0  00:00      0.00    0.00    0.00
  108                  CONDUIT      0.00     0  00:00      0.00    0.00    0.00
  109                  CONDUIT      0.00     0  00:00      0.00    0.00    0.00
  110                  CONDUIT      0.00     0  00:00      0.00    0.00    0.00
  111                  CONDUIT      0.00     0  00:00      0.00    0.00    0.00
  112                  CONDUIT      0.00     0  00:00      0.00    0.00    0.00
  113                  CONDUIT      0.00     0  00:00      0.00    0.00    0.00
  114                  CONDUIT      0.00     0  00:00      0.00    0.00    0.00
  115                  CONDUIT      0.00     0  00:00      0.00    0.00    0.00
  116                  CONDUIT      0.00     0  00:00      0.00    0.00    0.00
  117                  CONDUIT      0.00     0  00:00      0.00    0.00    0.00
  118                  CONDUIT      0.00     0  00:00      0.00    0.00    0.00
  119                  CONDUIT      0.00     0  00:00      0.00    0.00    0.00
  120                  CONDUIT      0.00     0  00:00      0.00    0.00    0.00
  121                  CONDUIT      0.00     0  00:00      0.00    0.00    0.00
  122                  CONDUIT      0.00     0  00:00      0.00    0.00    0.00
  123                  CONDUIT      0.00     0  00:00      0.00    0.00    0.00
  124                  CONDUIT      0.00     0  00:00      0.00    0.00    0.00
  125                  CONDUIT      0.00     0  00:00      0.00    0.00    0.00
  126                  CONDUIT      0.00     0  00:00      0.00    0.00    0.00
  127                  CONDUIT      0.00     0  00:00      0.00    0.00    0.00
  128                  CONDUIT      0.00     0  00:00      0.00    0.00    0.00
  129                  CONDUIT      0.00     0  00:00      0.00    0.00    0.00
  130                  CONDUIT      0.00     0  00:00      0.00    0.00    0.00
  131                  CONDUIT      0.00     0  00:00      0.00    0.00    0.00
  132                  CONDUIT      0.00     0  00:00      0.00    0.00    0.00
  133                  CONDUIT      0.00     0  00:00      0.00    0.00    0.00
  134                  CONDUIT      0.00     0  00:00      0.00    0.00    0.00
  135                  CONDUIT      0.00     0  00:00      0.00    0.00    0.00
  136                  CONDUIT      0.00     0  00:00      0.00    0.00    0.00
  137                  CONDUIT      0.00     0  00:00      0.00    0.00    0.00
  138                  CONDUIT      0.00     0  00:00      0.00    0.00    0.00
  139                  CONDUIT      0.00     0  00:00      0.00    0.00    0.00
  140                  CONDUIT      0.00     0  00:00      0.00    0.00    0.00
  141                  CONDUIT      0.00     0  00:00      0.00    0.00    0.00
  142                  CONDUIT      0.00     0  00:00      0.00    0.00    0.00
  143                  CONDUIT      0.00     0  00:00      0.00    0.00    0.00
  145                  CONDUIT      0.00     0  00:00      0.00    0.00    0.00
  146                  CONDUIT      0.00     0  00:00      0.00    0.00    0.00
  147                  CONDUIT      0.00     0  00:00      0.00    0.00    0.00
  148                  CONDUIT      0.00     0  00:00      0.00    0.00    0.50
  149                  CONDUIT      0.00     0  00:00      0.00    0.00    0.00
  
  
  ***************************
  Flow Classification Summary
  ***************************
  
  -------------------------------------------------------------------------------------
                      Adjusted    ---------- Fraction of Time in Flow Class ---------- 
                       /Actual         Up    Down  Sub   Sup   Up    Down  Norm  Inlet 
  Conduit               Length    Dry  Dry   Dry   Crit  Crit  Crit  Crit  Ltd   Ctrl  
  -------------------------------------------------------------------------------------
  1                       1.00   1.00  0.00  0.00  0.00  0.00  0.00  0.00  0.00  0.00
  2                       1.00   0.00  1.00  0.00  0.00  0.00  0.00  0.00  0.00  0.00
  3                       1.00   0.00  0.00  0.00  1.00  0.00  0.00  0.00  0.00  0.00
  4                       1.00   0.00  1.00  0.00  0.00  0.00  0.00  0.00  0.05  0.00
  5                       1.16   0.00  1.00  0.00  0.00  0.00  0.00  0.00  0.05  0.00
  6                       1.00   0.00  0.00  0.00  1.00  0.00  0.00  0.00  0.00  0.00
  7                       1.00   0.00  0.00  0.00  1.00  0.00  0.00  0.00  0.00  0.00
  8                       1.00   0.00  0.00  0.00  1.00  0.00  0.00  0.00  0.00  0.00
  9                       1.00   0.00  0.00  0.00  1.00  0.00  0.00  0.00  0.00  0.00
  10                      1.00   0.00  0.00  0.00  1.00  0.00  0.00  0.00  0.00  0.00
  11                      1.00   0.00  0.00  0.00  1.00  0.00  0.00  0.00  0.00  0.00
  12                      1.00   0.00  0.00  0.00  1.00  0.00  0.00  0.00  0.00  0.00
  13                      1.00   0.00  0.00  0.00  1.00  0.00  0.00  0.00  0.00  0.00
  14                      1.00   0.00  0.00  0.00  1.00  0.00  0.00  0.00  0.00  0.00
  15                      1.12   0.00  0.00  0.00  1.00  0.00  0.00  0.00  0.00  0.00
  19                      1.00   0.00  0.00  0.00  1.00  0.00  0.00  0.00  0.00  0.00
  20                      1.00   0.00  0.00  0.00  1.00  0.00  0.00  0.00  0.00  0.00
  21                      1.00   0.00  0.00  0.00  1.00  0.00  0.00  0.00  0.00  0.00
  22                      1.00   0.00  0.00  0.00  1.00  0.00  0.00  0.00  0.00  0.00
  23                      1.00   0.00  0.37  0.00  0.63  0.00  0.00  0.00  0.05  0.00
  24                      1.00   0.00  0.37  0.00  0.63  0.00  0.00  0.00  0.04  0.00
  25                      1.49   0.00  0.00  0.00  1.00  0.00  0.00  0.00  0.05  0.00
  26                      1.00   0.00  0.00  0.00  1.00  0.00  0.00  0.00  0.00  0.00
  27                      1.00   0.00  0.00  0.00  1.00  0.00  0.00  0.00  0.00  0.00
  28                      1.00   0.00  0.00  0.00  1.00  0.00  0.00  0.00  0.00  0.00
  29                      1.00   0.00  0.00  0.00  1.00  0.00  0.00  0.00  0.00  0.00
  30                      1.00   0.00  0.00  0.00  1.00  0.00  0.00  0.00  0.00  0.00
  31                      1.00   0.00  0.00  0.00  1.00  0.00  0.00  0.00  0.00  0.00
  32                      1.00   0.00  0.00  0.00  1.00  0.00  0.00  0.00  0.00  0.00
  33                      1.00   0.00  0.00  0.00  1.00  0.00  0.00  0.00  0.00  0.00
  34                      1.00   0.00  1.00  0.00  0.00  0.00  0.00  0.00  0.00  0.00
  35                      1.00   0.00  0.00  0.00  1.00  0.00  0.00  0.00  0.00  0.00
  36                      1.00   0.00  0.00  0.00  1.00  0.00  0.00  0.00  0.00  0.00
  37                      1.00   0.00  0.00  0.00  1.00  0.00  0.00  0.00  0.00  0.00
  38                      1.00   0.00  0.00  0.00  1.00  0.00  0.00  0.00  0.00  0.00
  39                      1.00   0.00  0.00  0.00  1.00  0.00  0.00  0.00  0.00  0.00
  40                      1.00   0.00  0.00  0.00  1.00  0.00  0.00  0.00  0.00  0.00
  41                      1.00   0.00  0.00  0.00  1.00  0.00  0.00  0.00  0.00  0.00
  42                      1.00   0.00  0.00  0.00  1.00  0.00  0.00  0.00  0.00  0.00
  43                      1.00   0.00  0.00  0.00  1.00  0.00  0.00  0.00  0.00  0.00
  44                      1.00   0.00  0.00  0.00  1.00  0.00  0.00  0.00  0.00  0.00
  45                      1.00   0.00  0.00  0.00  1.00  0.00  0.00  0.00  0.00  0.00
  46                      1.03   0.00  0.00  0.00  1.00  0.00  0.00  0.00  0.00  0.00
  47                      1.00   0.00  0.00  0.00  1.00  0.00  0.00  0.00  0.00  0.00
  48                      1.00   0.00  0.00  0.00  1.00  0.00  0.00  0.00  0.00  0.00
  49                      1.00   0.00  0.00  0.00  1.00  0.00  0.00  0.00  0.00  0.00
  50                      1.00   0.00  0.00  0.00  1.00  0.00  0.00  0.00  0.00  0.00
  51                      1.00   1.00  0.00  0.00  0.00  0.00  0.00  0.00  0.00  0.00
  52                      1.00   1.00  0.00  0.00  0.00  0.00  0.00  0.00  0.00  0.00
  53                      1.00   1.00  0.00  0.00  0.00  0.00  0.00  0.00  0.00  0.00
  54                      1.00   1.00  0.00  0.00  0.00  0.00  0.00  0.00  0.00  0.00
  55                      1.00   1.00  0.00  0.00  0.00  0.00  0.00  0.00  0.00  0.00
  56                      1.00   1.00  0.00  0.00  0.00  0.00  0.00  0.00  0.00  0.00
  57                      1.00   1.00  0.00  0.00  0.00  0.00  0.00  0.00  0.00  0.00
  58                      1.00   1.00  0.00  0.00  0.00  0.00  0.00  0.00  0.00  0.00
  59                      1.00   1.00  0.00  0.00  0.00  0.00  0.00  0.00  0.00  0.00
  60                      1.00   1.00  0.00  0.00  0.00  0.00  0.00  0.00  0.00  0.00
  61                      1.00   1.00  0.00  0.00  0.00  0.00  0.00  0.00  0.00  0.00
  62                      1.04   1.00  0.00  0.00  0.00  0.00  0.00  0.00  0.00  0.00
  63                      1.00   0.00  1.00  0.00  0.00  0.00  0.00  0.00  0.05  0.00
  64                      1.00   0.00  0.00  0.00  1.00  0.00  0.00  0.00  0.00  0.00
  65                      1.00   0.00  0.00  0.00  1.00  0.00  0.00  0.00  0.00  0.00
  67                      1.00   0.00  0.00  0.00  1.00  0.00  0.00  0.00  0.00  0.00
  68                      1.95   0.00  0.00  0.00  1.00  0.00  0.00  0.00  0.00  0.00
  69                      3.49   1.00  0.00  0.00  0.00  0.00  0.00  0.00  0.00  0.00
  70                      1.00   1.00  0.00  0.00  0.00  0.00  0.00  0.00  0.00  0.00
  71                      1.63   1.00  0.00  0.00  0.00  0.00  0.00  0.00  0.00  0.00
  72                      1.00   1.00  0.00  0.00  0.00  0.00  0.00  0.00  0.00  0.00
  73                      1.00   1.00  0.00  0.00  0.00  0.00  0.00  0.00  0.00  0.00
  74                      1.00   1.00  0.00  0.00  0.00  0.00  0.00  0.00  0.00  0.00
  75                      1.00   1.00  0.00  0.00  0.00  0.00  0.00  0.00  0.00  0.00
  76                      1.00   1.00  0.00  0.00  0.00  0.00  0.00  0.00  0.00  0.00
  77                      1.00   1.00  0.00  0.00  0.00  0.00  0.00  0.00  0.00  0.00
  78                      1.00   1.00  0.00  0.00  0.00  0.00  0.00  0.00  0.00  0.00
  79                      1.00   1.00  0.00  0.00  0.00  0.00  0.00  0.00  0.00  0.00
  80                      1.00   0.00  0.00  0.00  1.00  0.00  0.00  0.00  0.00  0.00
  81                      1.00   0.00  0.00  0.00  1.00  0.00  0.00  0.00  0.00  0.00
  82                      1.00   0.00  0.00  0.00  1.00  0.00  0.00  0.00  0.00  0.00
  83                      1.00   0.00  0.00  0.00  1.00  0.00  0.00  0.00  0.00  0.00
  84                      1.00   0.00  0.00  0.00  1.00  0.00  0.00  0.00  0.00  0.00
  85                      1.00   0.00  0.00  0.00  1.00  0.00  0.00  0.00  0.00  0.00
  86                      1.00   0.00  0.00  0.00  1.00  0.00  0.00  0.00  0.00  0.00
  87                      1.00   0.00  0.00  0.00  1.00  0.00  0.00  0.00  0.00  0.00
  88                      1.04   0.00  0.00  0.00  1.00  0.00  0.00  0.00  0.00  0.00
  89                      1.00   0.00  1.00  0.00  0.00  0.00  0.00  0.00  0.00  0.00
  90                      9.81   0.00  0.37  0.00  0.63  0.00  0.00  0.00  0.05  0.00
  91                     40.90   0.00  0.00  0.00  1.00  0.00  0.00  0.00  0.00  0.00
  92                    776.95   0.00  1.00  0.00  0.00  0.00  0.00  0.00  0.05  0.00
  93                      8.28   0.00  0.00  0.00  1.00  0.00  0.00  0.00  0.00  0.00
  94                      1.46   0.00  0.00  0.00  1.00  0.00  0.00  0.00  0.00  0.00
  95                      1.00   1.00  0.00  0.00  0.00  0.00  0.00  0.00  0.00  0.00
  96                      1.93   1.00  0.00  0.00  0.00  0.00  0.00  0.00  0.00  0.00
  97                      1.21   1.00  0.00  0.00  0.00  0.00  0.00  0.00  0.00  0.00
  98                      1.20   1.00  0.00  0.00  0.00  0.00  0.00  0.00  0.00  0.00
  99                      1.35   0.00  1.00  0.00  0.00  0.00  0.00  0.00  0.05  0.00
  100                     1.54   0.00  1.00  0.00  0.00  0.00  0.00  0.00  0.00  0.00
  101                     1.00   1.00  0.00  0.00  0.00  0.00  0.00  0.00  0.00  0.00
  102                     1.16   0.00  1.00  0.00  0.00  0.00  0.00  0.00  0.00  0.00
  103                     1.00   0.00  0.04  0.00  0.96  0.00  0.00  0.00  0.03  0.00
  104                     1.00   0.00  1.00  0.00  0.00  0.00  0.00  0.00  0.05  0.00
  17                      1.00   1.00  0.00  0.00  0.00  0.00  0.00  0.00  0.00  0.00
  18                      1.00   1.00  0.00  0.00  0.00  0.00  0.00  0.00  0.00  0.00
  66                      1.00   1.00  0.00  0.00  0.00  0.00  0.00  0.00  0.00  0.00
  105                     1.00   1.00  0.00  0.00  0.00  0.00  0.00  0.00  0.00  0.00
  106                     1.00   1.00  0.00  0.00  0.00  0.00  0.00  0.00  0.00  0.00
  107                     1.00   1.00  0.00  0.00  0.00  0.00  0.00  0.00  0.00  0.00
  108                     1.00   1.00  0.00  0.00  0.00  0.00  0.00  0.00  0.00  0.00
  109                     1.00   1.00  0.00  0.00  0.00  0.00  0.00  0.00  0.00  0.00
  110                     1.00   1.00  0.00  0.00  0.00  0.00  0.00  0.00  0.00  0.00
  111                     1.00   1.00  0.00  0.00  0.00  0.00  0.00  0.00  0.00  0.00
  112                     1.00   1.00  0.00  0.00  0.00  0.00  0.00  0.00  0.00  0.00
  113                     1.31   1.00  0.00  0.00  0.00  0.00  0.00  0.00  0.00  0.00
  114                     1.00   1.00  0.00  0.00  0.00  0.00  0.00  0.00  0.00  0.00
  115                     1.00   1.00  0.00  0.00  0.00  0.00  0.00  0.00  0.00  0.00
  116                     1.00   1.00  0.00  0.00  0.00  0.00  0.00  0.00  0.00  0.00
  117                     1.00   1.00  0.00  0.00  0.00  0.00  0.00  0.00  0.00  0.00
  118                     1.00   1.00  0.00  0.00  0.00  0.00  0.00  0.00  0.00  0.00
  119                     1.00   1.00  0.00  0.00  0.00  0.00  0.00  0.00  0.00  0.00
  120                     1.00   1.00  0.00  0.00  0.00  0.00  0.00  0.00  0.00  0.00
  121                     1.00   1.00  0.00  0.00  0.00  0.00  0.00  0.00  0.00  0.00
  122                     1.00   1.00  0.00  0.00  0.00  0.00  0.00  0.00  0.00  0.00
  123                     1.27   1.00  0.00  0.00  0.00  0.00  0.00  0.00  0.00  0.00
  124                     1.00   1.00  0.00  0.00  0.00  0.00  0.00  0.00  0.00  0.00
  125                     1.00   1.00  0.00  0.00  0.00  0.00  0.00  0.00  0.00  0.00
  126                     1.00   1.00  0.00  0.00  0.00  0.00  0.00  0.00  0.00  0.00
  127                     1.00   1.00  0.00  0.00  0.00  0.00  0.00  0.00  0.00  0.00
  128                     1.00   1.00  0.00  0.00  0.00  0.00  0.00  0.00  0.00  0.00
  129                     1.00   1.00  0.00  0.00  0.00  0.00  0.00  0.00  0.00  0.00
  130                     1.00   1.00  0.00  0.00  0.00  0.00  0.00  0.00  0.00  0.00
  131                     1.00   1.00  0.00  0.00  0.00  0.00  0.00  0.00  0.00  0.00
  132                     1.85   1.00  0.00  0.00  0.00  0.00  0.00  0.00  0.00  0.00
  133                     1.00   1.00  0.00  0.00  0.00  0.00  0.00  0.00  0.00  0.00
  134                     1.00   1.00  0.00  0.00  0.00  0.00  0.00  0.00  0.00  0.00
  135                     1.12   1.00  0.00  0.00  0.00  0.00  0.00  0.00  0.00  0.00
  136                     1.00   1.00  0.00  0.00  0.00  0.00  0.00  0.00  0.00  0.00
  137                     1.00   1.00  0.00  0.00  0.00  0.00  0.00  0.00  0.00  0.00
  138                     1.00   1.00  0.00  0.00  0.00  0.00  0.00  0.00  0.00  0.00
  139                     1.00   1.00  0.00  0.00  0.00  0.00  0.00  0.00  0.00  0.00
  140                     1.33   1.00  0.00  0.00  0.00  0.00  0.00  0.00  0.00  0.00
  141                     1.18   1.00  0.00  0.00  0.00  0.00  0.00  0.00  0.00  0.00
  142                     1.00   1.00  0.00  0.00  0.00  0.00  0.00  0.00  0.00  0.00
  143                     1.00   1.00  0.00  0.00  0.00  0.00  0.00  0.00  0.00  0.00
  145                     1.00   1.00  0.00  0.00  0.00  0.00  0.00  0.00  0.00  0.00
  146                     2.31   1.00  0.00  0.00  0.00  0.00  0.00  0.00  0.00  0.00
  147                    90.89   1.00  0.00  0.00  0.00  0.00  0.00  0.00  0.00  0.00
  148                     2.61   0.00  1.00  0.00  0.00  0.00  0.00  0.00  0.00  0.00
  149                     1.00   1.00  0.00  0.00  0.00  0.00  0.00  0.00  0.00  0.00
  
  
  *************************
  Conduit Surcharge Summary
  *************************
  
  ----------------------------------------------------------------------------
                                                           Hours        Hours 
                         --------- Hours Full --------   Above Full   Capacity
  Conduit                Both Ends  Upstream  Dnstream   Normal Flow   Limited
  ----------------------------------------------------------------------------
  7                           0.01      0.01     10.01      0.01         0.01
  8                          10.01     10.01     10.01      0.01         1.79
  9                          10.01     10.01     10.01      0.01         0.01
  10                         10.01     10.01     10.01      0.01         0.01
  11                         10.01     10.01     10.01      0.01         0.01
  12                         10.01     10.01     10.01      0.01         0.01
  13                         10.01     10.01     10.01      0.01         0.01
  14                         10.01     10.01     10.01      0.01         0.01
  15                          0.01      0.01     10.01      0.01         0.01
  19                         10.01     10.01     10.01      0.01         0.01
  20                         10.01     10.01     10.01      0.01         0.01
  21                         10.01     10.01     10.01      0.01         0.01
  22                          0.01      0.01     10.01      0.01         0.01
  29                          0.01      0.01     10.01      0.01         0.01
  31                         10.01     10.01     10.01      0.01         0.01
  32                         10.01     10.01     10.01      0.01         0.01
  33                         10.01     10.01     10.01      0.01         0.01
  37                         10.01     10.01     10.01      0.01         0.01
  38                         10.01     10.01     10.01      0.01         0.01
  39                         10.01     10.01     10.01      0.01         4.98
  40                         10.01     10.01     10.01      0.01         0.01
  41                         10.01     10.01     10.01      0.01         0.01
  42                         10.01     10.01     10.01      0.01         0.01
  44                         10.01     10.01     10.01      0.01         0.01
  45                         10.01     10.01     10.01      0.01         0.01
  46                         10.01     10.01     10.01      0.01         0.01
  47                         10.01     10.01     10.01      0.01         0.01
  48                         10.01     10.01     10.01      0.01         4.91
  49                         10.01     10.01     10.01      0.01         0.01
  50                          0.01      0.01     10.01      0.01         0.01
  65                          0.01      0.01     10.01      0.01         0.01
  68                         10.01     10.01     10.01      0.01         0.01
  80                         10.01     10.01     10.01      0.01         4.82
  81                         10.01     10.01     10.01      0.01         0.01
  82                         10.01     10.01     10.01      0.01         0.01
  83                         10.01     10.01     10.01      0.01         0.01
  85                         10.01     10.01     10.01      0.01         4.81
  86                         10.01     10.01     10.01      0.01         0.01
  87                          0.01      0.01     10.01      0.01         0.01
  90                          0.01      0.01     10.01      0.01         0.01
  91                         10.01     10.01     10.01      0.01         0.01
  93                          0.01      0.01     10.01      0.01         0.01
  94                         10.01     10.01     10.01      0.01         0.01
  
  
  ************
  Node Results
  ************
  
  <<< Node 1 >>>
  ----------------------------------------------------------------
                           Inflow  Flooding     Depth      Head
  Date        Time            CFS       CFS      feet      feet
  ----------------------------------------------------------------
   01/08/2020 14:00:00      0.000     0.000     0.000    10.010
   01/08/2020 14:15:00      0.000     0.000     0.000    10.010
   01/08/2020 14:30:00      0.000     0.000     0.000    10.010
   01/08/2020 14:45:00      0.000     0.000     0.000    10.010
   01/08/2020 15:00:00      0.000     0.000     0.000    10.010
   01/08/2020 15:15:00      0.000     0.000     0.000    10.010
   01/08/2020 15:30:00      0.000     0.000     0.000    10.010
   01/08/2020 15:45:00      0.000     0.000     0.000    10.010
   01/08/2020 16:00:00      0.000     0.000     0.000    10.010
   01/08/2020 16:15:00      0.000     0.000     0.000    10.010
   01/08/2020 16:30:00      0.000     0.000     0.000    10.010
   01/08/2020 16:45:00      0.000     0.000     0.000    10.010
   01/08/2020 17:00:00      0.000     0.000     0.000    10.010
   01/08/2020 17:15:00      0.000     0.000     0.000    10.010
   01/08/2020 17:30:00      0.000     0.000     0.000    10.010
   01/08/2020 17:45:00      0.000     0.000     0.000    10.010
   01/08/2020 18:00:00      0.000     0.000     0.000    10.010
   01/08/2020 18:15:00      0.000     0.000     0.000    10.010
   01/08/2020 18:30:00      0.000     0.000     0.000    10.010
   01/08/2020 18:45:00      0.000     0.000     0.000    10.010
   01/08/2020 19:00:00      0.000     0.000     0.000    10.010
   01/08/2020 19:15:00      0.000     0.000     0.000    10.010
   01/08/2020 19:30:00      0.000     0.000     0.000    10.010
   01/08/2020 19:45:00      0.000     0.000     0.000    10.010
   01/08/2020 20:00:00      0.000     0.000     0.000    10.010
   01/08/2020 20:15:00      0.000     0.000     0.000    10.010
   01/08/2020 20:30:00      0.000     0.000     0.000    10.010
   01/08/2020 20:45:00      0.000     0.000     0.000    10.010
   01/08/2020 21:00:00      0.000     0.000     0.000    10.010
   01/08/2020 21:15:00      0.000     0.000     0.000    10.010
   01/08/2020 21:30:00      0.000     0.000     0.000    10.010
   01/08/2020 21:45:00      0.000     0.000     0.000    10.010
   01/08/2020 22:00:00      0.000     0.000     0.000    10.010
   01/08/2020 22:15:00      0.000     0.000     0.000    10.010
   01/08/2020 22:30:00      0.000     0.000     0.000    10.010
   01/08/2020 22:45:00      0.000     0.000     0.000    10.010
   01/08/2020 23:00:00      0.000     0.000     0.000    10.010
   01/08/2020 23:15:00      0.000     0.000     0.000    10.010
   01/08/2020 23:30:00      0.000     0.000     0.000    10.010
   01/08/2020 23:45:00      0.000     0.000     0.000    10.010
   01/09/2020 00:00:00      0.000     0.000     0.000    10.010
  
  
  <<< Node 2 >>>
  ----------------------------------------------------------------
                           Inflow  Flooding     Depth      Head
  Date        Time            CFS       CFS      feet      feet
  ----------------------------------------------------------------
   01/08/2020 14:00:00      0.000     0.000     0.000     8.990
   01/08/2020 14:15:00      0.000     0.000     0.000     8.990
   01/08/2020 14:30:00      0.000     0.000     0.000     8.990
   01/08/2020 14:45:00      0.000     0.000     0.000     8.990
   01/08/2020 15:00:00      0.000     0.000     0.000     8.990
   01/08/2020 15:15:00      0.000     0.000     0.000     8.990
   01/08/2020 15:30:00      0.000     0.000     0.000     8.990
   01/08/2020 15:45:00      0.000     0.000     0.000     8.990
   01/08/2020 16:00:00      0.000     0.000     0.000     8.990
   01/08/2020 16:15:00      0.000     0.000     0.000     8.990
   01/08/2020 16:30:00      0.000     0.000     0.000     8.990
   01/08/2020 16:45:00      0.000     0.000     0.000     8.990
   01/08/2020 17:00:00      0.000     0.000     0.000     8.990
   01/08/2020 17:15:00      0.000     0.000     0.000     8.990
   01/08/2020 17:30:00      0.000     0.000     0.000     8.990
   01/08/2020 17:45:00      0.000     0.000     0.000     8.990
   01/08/2020 18:00:00      0.000     0.000     0.000     8.990
   01/08/2020 18:15:00      0.000     0.000     0.000     8.990
   01/08/2020 18:30:00      0.000     0.000     0.000     8.990
   01/08/2020 18:45:00      0.000     0.000     0.000     8.990
   01/08/2020 19:00:00      0.000     0.000     0.000     8.990
   01/08/2020 19:15:00      0.000     0.000     0.000     8.990
   01/08/2020 19:30:00      0.000     0.000     0.000     8.990
   01/08/2020 19:45:00      0.000     0.000     0.000     8.990
   01/08/2020 20:00:00      0.000     0.000     0.000     8.990
   01/08/2020 20:15:00      0.000     0.000     0.000     8.990
   01/08/2020 20:30:00      0.000     0.000     0.000     8.990
   01/08/2020 20:45:00      0.000     0.000     0.000     8.990
   01/08/2020 21:00:00      0.000     0.000     0.000     8.990
   01/08/2020 21:15:00      0.000     0.000     0.000     8.990
   01/08/2020 21:30:00      0.000     0.000     0.000     8.990
   01/08/2020 21:45:00      0.000     0.000     0.000     8.990
   01/08/2020 22:00:00      0.000     0.000     0.000     8.990
   01/08/2020 22:15:00      0.000     0.000     0.000     8.990
   01/08/2020 22:30:00      0.000     0.000     0.000     8.990
   01/08/2020 22:45:00      0.000     0.000     0.000     8.990
   01/08/2020 23:00:00      0.000     0.000     0.000     8.990
   01/08/2020 23:15:00      0.000     0.000     0.000     8.990
   01/08/2020 23:30:00      0.000     0.000     0.000     8.990
   01/08/2020 23:45:00      0.000     0.000     0.000     8.990
   01/09/2020 00:00:00      0.000     0.000     0.000     8.990
  
  
  <<< Node 3 >>>
  ----------------------------------------------------------------
                           Inflow  Flooding     Depth      Head
  Date        Time            CFS       CFS      feet      feet
  ----------------------------------------------------------------
   01/08/2020 14:00:00      0.000     0.000     3.145    -0.075
   01/08/2020 14:15:00      0.000     0.000     3.145    -0.075
   01/08/2020 14:30:00      0.000     0.000     3.145    -0.075
   01/08/2020 14:45:00      0.000     0.000     3.145    -0.075
   01/08/2020 15:00:00      0.000     0.000     3.145    -0.075
   01/08/2020 15:15:00      0.000     0.000     3.145    -0.075
   01/08/2020 15:30:00      0.000     0.000     3.145    -0.075
   01/08/2020 15:45:00      0.000     0.000     3.145    -0.075
   01/08/2020 16:00:00      0.000     0.000     3.145    -0.075
   01/08/2020 16:15:00      0.000     0.000     3.145    -0.075
   01/08/2020 16:30:00      0.000     0.000     3.145    -0.075
   01/08/2020 16:45:00      0.000     0.000     3.145    -0.075
   01/08/2020 17:00:00      0.000     0.000     3.145    -0.075
   01/08/2020 17:15:00      0.000     0.000     3.145    -0.075
   01/08/2020 17:30:00      0.000     0.000     3.145    -0.075
   01/08/2020 17:45:00      0.000     0.000     3.145    -0.075
   01/08/2020 18:00:00      0.000     0.000     3.145    -0.075
   01/08/2020 18:15:00      0.000     0.000     3.145    -0.075
   01/08/2020 18:30:00      0.000     0.000     3.145    -0.075
   01/08/2020 18:45:00      0.000     0.000     3.145    -0.075
   01/08/2020 19:00:00      0.000     0.000     3.145    -0.075
   01/08/2020 19:15:00      0.000     0.000     3.145    -0.075
   01/08/2020 19:30:00      0.001     0.000     3.145    -0.075
   01/08/2020 19:45:00      0.000     0.000     3.145    -0.075
   01/08/2020 20:00:00      0.001     0.000     3.145    -0.075
   01/08/2020 20:15:00      0.000     0.000     3.145    -0.075
   01/08/2020 20:30:00      0.000     0.000     3.145    -0.075
   01/08/2020 20:45:00      0.000     0.000     3.145    -0.075
   01/08/2020 21:00:00      0.000     0.000     3.145    -0.075
   01/08/2020 21:15:00      0.000     0.000     3.145    -0.075
   01/08/2020 21:30:00      0.000     0.000     3.145    -0.075
   01/08/2020 21:45:00      0.000     0.000     3.145    -0.075
   01/08/2020 22:00:00      0.000     0.000     3.145    -0.075
   01/08/2020 22:15:00      0.000     0.000     3.145    -0.075
   01/08/2020 22:30:00      0.000     0.000     3.145    -0.075
   01/08/2020 22:45:00      0.000     0.000     3.145    -0.075
   01/08/2020 23:00:00      0.001     0.000     3.145    -0.075
   01/08/2020 23:15:00      0.000     0.000     3.145    -0.075
   01/08/2020 23:30:00      0.000     0.000     3.145    -0.075
   01/08/2020 23:45:00      0.000     0.000     3.145    -0.075
   01/09/2020 00:00:00      0.000     0.000     3.145    -0.075
  
  
  <<< Node 4 >>>
  ----------------------------------------------------------------
                           Inflow  Flooding     Depth      Head
  Date        Time            CFS       CFS      feet      feet
  ----------------------------------------------------------------
   01/08/2020 14:00:00      0.000     0.000     1.485    -0.075
   01/08/2020 14:15:00      0.000     0.000     1.485    -0.075
   01/08/2020 14:30:00      0.001     0.000     1.485    -0.075
   01/08/2020 14:45:00      0.000     0.000     1.485    -0.075
   01/08/2020 15:00:00      0.000     0.000     1.485    -0.075
   01/08/2020 15:15:00      0.000     0.000     1.485    -0.075
   01/08/2020 15:30:00      0.000     0.000     1.485    -0.075
   01/08/2020 15:45:00      0.001     0.000     1.485    -0.075
   01/08/2020 16:00:00      0.001     0.000     1.485    -0.075
   01/08/2020 16:15:00      0.000     0.000     1.485    -0.075
   01/08/2020 16:30:00      0.000     0.000     1.485    -0.075
   01/08/2020 16:45:00      0.000     0.000     1.485    -0.075
   01/08/2020 17:00:00      0.001     0.000     1.485    -0.075
   01/08/2020 17:15:00      0.001     0.000     1.485    -0.075
   01/08/2020 17:30:00      0.000     0.000     1.485    -0.075
   01/08/2020 17:45:00      0.001     0.000     1.485    -0.075
   01/08/2020 18:00:00      0.000     0.000     1.485    -0.075
   01/08/2020 18:15:00      0.000     0.000     1.485    -0.075
   01/08/2020 18:30:00      0.000     0.000     1.485    -0.075
   01/08/2020 18:45:00      0.000     0.000     1.485    -0.075
   01/08/2020 19:00:00      0.000     0.000     1.485    -0.075
   01/08/2020 19:15:00      0.000     0.000     1.485    -0.075
   01/08/2020 19:30:00      0.000     0.000     1.485    -0.075
   01/08/2020 19:45:00      0.000     0.000     1.485    -0.075
   01/08/2020 20:00:00      0.000     0.000     1.485    -0.075
   01/08/2020 20:15:00      0.000     0.000     1.485    -0.075
   01/08/2020 20:30:00      0.000     0.000     1.485    -0.075
   01/08/2020 20:45:00      0.000     0.000     1.485    -0.075
   01/08/2020 21:00:00      0.001     0.000     1.485    -0.075
   01/08/2020 21:15:00      0.000     0.000     1.485    -0.075
   01/08/2020 21:30:00      0.000     0.000     1.485    -0.075
   01/08/2020 21:45:00      0.000     0.000     1.485    -0.075
   01/08/2020 22:00:00      0.000     0.000     1.485    -0.075
   01/08/2020 22:15:00      0.000     0.000     1.485    -0.075
   01/08/2020 22:30:00      0.000     0.000     1.485    -0.075
   01/08/2020 22:45:00      0.000     0.000     1.485    -0.075
   01/08/2020 23:00:00      0.000     0.000     1.485    -0.075
   01/08/2020 23:15:00      0.000     0.000     1.485    -0.075
   01/08/2020 23:30:00      0.000     0.000     1.485    -0.075
   01/08/2020 23:45:00      0.000     0.000     1.485    -0.075
   01/09/2020 00:00:00      0.001     0.000     1.485    -0.075
  
  
  <<< Node 5 >>>
  ----------------------------------------------------------------
                           Inflow  Flooding     Depth      Head
  Date        Time            CFS       CFS      feet      feet
  ----------------------------------------------------------------
   01/08/2020 14:00:00      0.000     0.000     0.000     8.590
   01/08/2020 14:15:00      0.000     0.000     0.000     8.590
   01/08/2020 14:30:00      0.000     0.000     0.000     8.590
   01/08/2020 14:45:00      0.000     0.000     0.000     8.590
   01/08/2020 15:00:00      0.000     0.000     0.000     8.590
   01/08/2020 15:15:00      0.000     0.000     0.000     8.590
   01/08/2020 15:30:00      0.000     0.000     0.000     8.590
   01/08/2020 15:45:00      0.000     0.000     0.000     8.590
   01/08/2020 16:00:00      0.000     0.000     0.000     8.590
   01/08/2020 16:15:00      0.000     0.000     0.000     8.590
   01/08/2020 16:30:00      0.000     0.000     0.000     8.590
   01/08/2020 16:45:00      0.000     0.000     0.000     8.590
   01/08/2020 17:00:00      0.000     0.000     0.000     8.590
[...]
   01/08/2020 16:15:00      0.000     0.000     0.000     0.000
   01/08/2020 16:30:00      0.000     0.000     0.000     0.000
   01/08/2020 16:45:00      0.000     0.000     0.000     0.000
   01/08/2020 17:00:00      0.000     0.000     0.000     0.000
   01/08/2020 17:15:00      0.000     0.000     0.000     0.000
   01/08/2020 17:30:00      0.000     0.000     0.000     0.000
   01/08/2020 17:45:00      0.000     0.000     0.000     0.000
   01/08/2020 18:00:00      0.000     0.000     0.000     0.000
   01/08/2020 18:15:00      0.000     0.000     0.000     0.000
   01/08/2020 18:30:00      0.000     0.000     0.000     0.000
   01/08/2020 18:45:00      0.000     0.000     0.000     0.000
   01/08/2020 19:00:00      0.000     0.000     0.000     0.000
   01/08/2020 19:15:00      0.000     0.000     0.000     0.000
   01/08/2020 19:30:00      0.000     0.000     0.000     0.000
   01/08/2020 19:45:00      0.000     0.000     0.000     0.000
   01/08/2020 20:00:00      0.000     0.000     0.000     0.000
   01/08/2020 20:15:00      0.000     0.000     0.000     0.000
   01/08/2020 20:30:00      0.000     0.000     0.000     0.000
   01/08/2020 20:45:00      0.000     0.000     0.000     0.000
   01/08/2020 21:00:00      0.000     0.000     0.000     0.000
   01/08/2020 21:15:00      0.000     0.000     0.000     0.000
   01/08/2020 21:30:00      0.000     0.000     0.000     0.000
   01/08/2020 21:45:00      0.000     0.000     0.000     0.000
   01/08/2020 22:00:00      0.000     0.000     0.000     0.000
   01/08/2020 22:15:00      0.000     0.000     0.000     0.000
   01/08/2020 22:30:00      0.000     0.000     0.000     0.000
   01/08/2020 22:45:00      0.000     0.000     0.000     0.000
   01/08/2020 23:00:00      0.000     0.000     0.000     0.000
   01/08/2020 23:15:00      0.000     0.000     0.000     0.000
   01/08/2020 23:30:00      0.000     0.000     0.000     0.000
   01/08/2020 23:45:00      0.000     0.000     0.000     0.000
   01/09/2020 00:00:00      0.000     0.000     0.000     0.000
  
  
  <<< Link 143 >>>
  ----------------------------------------------------------------
                             Flow  Velocity     Depth  Capacity/
  Date        Time            CFS    ft/sec      feet   Setting 
  ----------------------------------------------------------------
   01/08/2020 14:00:00      0.000     0.000     0.000     0.000
   01/08/2020 14:15:00      0.000     0.000     0.000     0.000
   01/08/2020 14:30:00      0.000     0.000     0.000     0.000
   01/08/2020 14:45:00      0.000     0.000     0.000     0.000
   01/08/2020 15:00:00      0.000     0.000     0.000     0.000
   01/08/2020 15:15:00      0.000     0.000     0.000     0.000
   01/08/2020 15:30:00      0.000     0.000     0.000     0.000
   01/08/2020 15:45:00      0.000     0.000     0.000     0.000
   01/08/2020 16:00:00      0.000     0.000     0.000     0.000
   01/08/2020 16:15:00      0.000     0.000     0.000     0.000
   01/08/2020 16:30:00      0.000     0.000     0.000     0.000
   01/08/2020 16:45:00      0.000     0.000     0.000     0.000
   01/08/2020 17:00:00      0.000     0.000     0.000     0.000
   01/08/2020 17:15:00      0.000     0.000     0.000     0.000
   01/08/2020 17:30:00      0.000     0.000     0.000     0.000
   01/08/2020 17:45:00      0.000     0.000     0.000     0.000
   01/08/2020 18:00:00      0.000     0.000     0.000     0.000
   01/08/2020 18:15:00      0.000     0.000     0.000     0.000
   01/08/2020 18:30:00      0.000     0.000     0.000     0.000
   01/08/2020 18:45:00      0.000     0.000     0.000     0.000
   01/08/2020 19:00:00      0.000     0.000     0.000     0.000
   01/08/2020 19:15:00      0.000     0.000     0.000     0.000
   01/08/2020 19:30:00      0.000     0.000     0.000     0.000
   01/08/2020 19:45:00      0.000     0.000     0.000     0.000
   01/08/2020 20:00:00      0.000     0.000     0.000     0.000
   01/08/2020 20:15:00      0.000     0.000     0.000     0.000
   01/08/2020 20:30:00      0.000     0.000     0.000     0.000
   01/08/2020 20:45:00      0.000     0.000     0.000     0.000
   01/08/2020 21:00:00      0.000     0.000     0.000     0.000
   01/08/2020 21:15:00      0.000     0.000     0.000     0.000
   01/08/2020 21:30:00      0.000     0.000     0.000     0.000
   01/08/2020 21:45:00      0.000     0.000     0.000     0.000
   01/08/2020 22:00:00      0.000     0.000     0.000     0.000
   01/08/2020 22:15:00      0.000     0.000     0.000     0.000
   01/08/2020 22:30:00      0.000     0.000     0.000     0.000
   01/08/2020 22:45:00      0.000     0.000     0.000     0.000
   01/08/2020 23:00:00      0.000     0.000     0.000     0.000
   01/08/2020 23:15:00      0.000     0.000     0.000     0.000
   01/08/2020 23:30:00      0.000     0.000     0.000     0.000
   01/08/2020 23:45:00      0.000     0.000     0.000     0.000
   01/09/2020 00:00:00      0.000     0.000     0.000     0.000
  
  
  <<< Link 145 >>>
  ----------------------------------------------------------------
                             Flow  Velocity     Depth  Capacity/
  Date        Time            CFS    ft/sec      feet   Setting 
  ----------------------------------------------------------------
   01/08/2020 14:00:00     -0.000    -0.000     0.000     0.000
   01/08/2020 14:15:00     -0.000    -0.000     0.000     0.000
   01/08/2020 14:30:00     -0.000    -0.000     0.000     0.000
   01/08/2020 14:45:00     -0.000    -0.000     0.000     0.000
   01/08/2020 15:00:00     -0.000    -0.000     0.000     0.000
   01/08/2020 15:15:00     -0.000    -0.000     0.000     0.000
   01/08/2020 15:30:00     -0.000    -0.000     0.000     0.000
   01/08/2020 15:45:00     -0.000    -0.000     0.000     0.000
   01/08/2020 16:00:00     -0.000    -0.000     0.000     0.000
   01/08/2020 16:15:00     -0.000    -0.000     0.000     0.000
   01/08/2020 16:30:00     -0.000    -0.000     0.000     0.000
   01/08/2020 16:45:00     -0.000    -0.000     0.000     0.000
   01/08/2020 17:00:00     -0.000    -0.000     0.000     0.000
   01/08/2020 17:15:00     -0.000    -0.000     0.000     0.000
   01/08/2020 17:30:00     -0.000    -0.000     0.000     0.000
   01/08/2020 17:45:00     -0.000    -0.000     0.000     0.000
   01/08/2020 18:00:00     -0.000    -0.000     0.000     0.000
   01/08/2020 18:15:00     -0.000    -0.000     0.000     0.000
   01/08/2020 18:30:00     -0.000    -0.000     0.000     0.000
   01/08/2020 18:45:00     -0.000    -0.000     0.000     0.000
   01/08/2020 19:00:00     -0.000    -0.000     0.000     0.000
   01/08/2020 19:15:00     -0.000    -0.000     0.000     0.000
   01/08/2020 19:30:00     -0.000    -0.000     0.000     0.000
   01/08/2020 19:45:00     -0.000    -0.000     0.000     0.000
   01/08/2020 20:00:00     -0.000    -0.000     0.000     0.000
   01/08/2020 20:15:00     -0.000    -0.000     0.000     0.000
   01/08/2020 20:30:00     -0.000    -0.000     0.000     0.000
   01/08/2020 20:45:00     -0.000    -0.000     0.000     0.000
   01/08/2020 21:00:00     -0.000    -0.000     0.000     0.000
   01/08/2020 21:15:00     -0.000    -0.000     0.000     0.000
   01/08/2020 21:30:00     -0.000    -0.000     0.000     0.000
   01/08/2020 21:45:00     -0.000    -0.000     0.000     0.000
   01/08/2020 22:00:00     -0.000    -0.000     0.000     0.000
   01/08/2020 22:15:00     -0.000    -0.000     0.000     0.000
   01/08/2020 22:30:00     -0.000    -0.000     0.000     0.000
   01/08/2020 22:45:00     -0.000    -0.000     0.000     0.000
   01/08/2020 23:00:00     -0.000    -0.000     0.000     0.000
   01/08/2020 23:15:00     -0.000    -0.000     0.000     0.000
   01/08/2020 23:30:00     -0.000    -0.000     0.000     0.000
   01/08/2020 23:45:00     -0.000    -0.000     0.000     0.000
   01/09/2020 00:00:00     -0.000    -0.000     0.000     0.000
  
  
  <<< Link 146 >>>
  ----------------------------------------------------------------
                             Flow  Velocity     Depth  Capacity/
  Date        Time            CFS    ft/sec      feet   Setting 
  ----------------------------------------------------------------
   01/08/2020 14:00:00     -0.000    -0.000     0.000     0.000
   01/08/2020 14:15:00     -0.000    -0.000     0.000     0.000
   01/08/2020 14:30:00     -0.000    -0.000     0.000     0.000
   01/08/2020 14:45:00     -0.000    -0.000     0.000     0.000
   01/08/2020 15:00:00     -0.000    -0.000     0.000     0.000
   01/08/2020 15:15:00     -0.000    -0.000     0.000     0.000
   01/08/2020 15:30:00     -0.000    -0.000     0.000     0.000
   01/08/2020 15:45:00     -0.000    -0.000     0.000     0.000
   01/08/2020 16:00:00     -0.000    -0.000     0.000     0.000
   01/08/2020 16:15:00     -0.000    -0.000     0.000     0.000
   01/08/2020 16:30:00     -0.000    -0.000     0.000     0.000
   01/08/2020 16:45:00     -0.000    -0.000     0.000     0.000
   01/08/2020 17:00:00     -0.000    -0.000     0.000     0.000
   01/08/2020 17:15:00     -0.000    -0.000     0.000     0.000
   01/08/2020 17:30:00     -0.000    -0.000     0.000     0.000
   01/08/2020 17:45:00     -0.000    -0.000     0.000     0.000
   01/08/2020 18:00:00     -0.000    -0.000     0.000     0.000
   01/08/2020 18:15:00     -0.000    -0.000     0.000     0.000
   01/08/2020 18:30:00     -0.000    -0.000     0.000     0.000
   01/08/2020 18:45:00     -0.000    -0.000     0.000     0.000
   01/08/2020 19:00:00     -0.000    -0.000     0.000     0.000
   01/08/2020 19:15:00     -0.000    -0.000     0.000     0.000
   01/08/2020 19:30:00     -0.000    -0.000     0.000     0.000
   01/08/2020 19:45:00     -0.000    -0.000     0.000     0.000
   01/08/2020 20:00:00     -0.000    -0.000     0.000     0.000
   01/08/2020 20:15:00     -0.000    -0.000     0.000     0.000
   01/08/2020 20:30:00     -0.000    -0.000     0.000     0.000
   01/08/2020 20:45:00     -0.000    -0.000     0.000     0.000
   01/08/2020 21:00:00     -0.000    -0.000     0.000     0.000
   01/08/2020 21:15:00     -0.000    -0.000     0.000     0.000
   01/08/2020 21:30:00     -0.000    -0.000     0.000     0.000
   01/08/2020 21:45:00     -0.000    -0.000     0.000     0.000
   01/08/2020 22:00:00     -0.000    -0.000     0.000     0.000
   01/08/2020 22:15:00     -0.000    -0.000     0.000     0.000
   01/08/2020 22:30:00     -0.000    -0.000     0.000     0.000
   01/08/2020 22:45:00     -0.000    -0.000     0.000     0.000
   01/08/2020 23:00:00     -0.000    -0.000     0.000     0.000
   01/08/2020 23:15:00     -0.000    -0.000     0.000     0.000
   01/08/2020 23:30:00     -0.000    -0.000     0.000     0.000
   01/08/2020 23:45:00     -0.000    -0.000     0.000     0.000
   01/09/2020 00:00:00     -0.000    -0.000     0.000     0.000
  
  
  <<< Link 147 >>>
  ----------------------------------------------------------------
                             Flow  Velocity     Depth  Capacity/
  Date        Time            CFS    ft/sec      feet   Setting 
  ----------------------------------------------------------------
   01/08/2020 14:00:00      0.000     0.000     0.000     0.000
   01/08/2020 14:15:00      0.000     0.000     0.000     0.000
   01/08/2020 14:30:00      0.000     0.000     0.000     0.000
   01/08/2020 14:45:00      0.000     0.000     0.000     0.000
   01/08/2020 15:00:00      0.000     0.000     0.000     0.000
   01/08/2020 15:15:00      0.000     0.000     0.000     0.000
   01/08/2020 15:30:00      0.000     0.000     0.000     0.000
   01/08/2020 15:45:00      0.000     0.000     0.000     0.000
   01/08/2020 16:00:00      0.000     0.000     0.000     0.000
   01/08/2020 16:15:00      0.000     0.000     0.000     0.000
   01/08/2020 16:30:00      0.000     0.000     0.000     0.000
   01/08/2020 16:45:00      0.000     0.000     0.000     0.000
   01/08/2020 17:00:00      0.000     0.000     0.000     0.000
   01/08/2020 17:15:00      0.000     0.000     0.000     0.000
   01/08/2020 17:30:00      0.000     0.000     0.000     0.000
   01/08/2020 17:45:00      0.000     0.000     0.000     0.000
   01/08/2020 18:00:00      0.000     0.000     0.000     0.000
   01/08/2020 18:15:00      0.000     0.000     0.000     0.000
   01/08/2020 18:30:00      0.000     0.000     0.000     0.000
   01/08/2020 18:45:00      0.000     0.000     0.000     0.000
   01/08/2020 19:00:00      0.000     0.000     0.000     0.000
   01/08/2020 19:15:00      0.000     0.000     0.000     0.000
   01/08/2020 19:30:00      0.000     0.000     0.000     0.000
   01/08/2020 19:45:00      0.000     0.000     0.000     0.000
   01/08/2020 20:00:00      0.000     0.000     0.000     0.000
   01/08/2020 20:15:00      0.000     0.000     0.000     0.000
   01/08/2020 20:30:00      0.000     0.000     0.000     0.000
   01/08/2020 20:45:00      0.000     0.000     0.000     0.000
   01/08/2020 21:00:00      0.000     0.000     0.000     0.000
   01/08/2020 21:15:00      0.000     0.000     0.000     0.000
   01/08/2020 21:30:00      0.000     0.000     0.000     0.000
   01/08/2020 21:45:00      0.000     0.000     0.000     0.000
   01/08/2020 22:00:00      0.000     0.000     0.000     0.000
   01/08/2020 22:15:00      0.000     0.000     0.000     0.000
   01/08/2020 22:30:00      0.000     0.000     0.000     0.000
   01/08/2020 22:45:00      0.000     0.000     0.000     0.000
   01/08/2020 23:00:00      0.000     0.000     0.000     0.000
   01/08/2020 23:15:00      0.000     0.000     0.000     0.000
   01/08/2020 23:30:00      0.000     0.000     0.000     0.000
   01/08/2020 23:45:00      0.000     0.000     0.000     0.000
   01/09/2020 00:00:00      0.000     0.000     0.000     0.000
  
  
  <<< Link 148 >>>
  ----------------------------------------------------------------
                             Flow  Velocity     Depth  Capacity/
  Date        Time            CFS    ft/sec      feet   Setting 
  ----------------------------------------------------------------
   01/08/2020 14:00:00      0.000     0.000     7.500     0.500
   01/08/2020 14:15:00      0.000     0.000     7.500     0.500
   01/08/2020 14:30:00      0.000     0.000     7.500     0.500
   01/08/2020 14:45:00      0.000     0.000     7.500     0.500
   01/08/2020 15:00:00      0.000     0.000     7.500     0.500
   01/08/2020 15:15:00      0.000     0.000     7.500     0.500
   01/08/2020 15:30:00      0.000     0.000     7.500     0.500
   01/08/2020 15:45:00      0.000     0.000     7.500     0.500
   01/08/2020 16:00:00      0.000     0.000     7.500     0.500
   01/08/2020 16:15:00      0.000     0.000     7.500     0.500
   01/08/2020 16:30:00      0.000     0.000     7.500     0.500
   01/08/2020 16:45:00      0.000     0.000     7.500     0.500
   01/08/2020 17:00:00      0.000     0.000     7.500     0.500
   01/08/2020 17:15:00      0.000     0.000     7.500     0.500
   01/08/2020 17:30:00      0.000     0.000     7.500     0.500
   01/08/2020 17:45:00      0.000     0.000     7.500     0.500
   01/08/2020 18:00:00      0.000     0.000     7.500     0.500
   01/08/2020 18:15:00      0.000     0.000     7.500     0.500
   01/08/2020 18:30:00      0.000     0.000     7.500     0.500
   01/08/2020 18:45:00      0.000     0.000     7.500     0.500
   01/08/2020 19:00:00      0.000     0.000     7.500     0.500
   01/08/2020 19:15:00      0.000     0.000     7.500     0.500
   01/08/2020 19:30:00      0.000     0.000     7.500     0.500
   01/08/2020 19:45:00      0.000     0.000     7.500     0.500
   01/08/2020 20:00:00      0.000     0.000     7.500     0.500
   01/08/2020 20:15:00      0.000     0.000     7.500     0.500
   01/08/2020 20:30:00      0.000     0.000     7.500     0.500
   01/08/2020 20:45:00      0.000     0.000     7.500     0.500
   01/08/2020 21:00:00      0.000     0.000     7.500     0.500
   01/08/2020 21:15:00      0.000     0.000     7.500     0.500
   01/08/2020 21:30:00      0.000     0.000     7.500     0.500
   01/08/2020 21:45:00      0.000     0.000     7.500     0.500
   01/08/2020 22:00:00      0.000     0.000     7.500     0.500
   01/08/2020 22:15:00      0.000     0.000     7.500     0.500
   01/08/2020 22:30:00      0.000     0.000     7.500     0.500
   01/08/2020 22:45:00      0.000     0.000     7.500     0.500
   01/08/2020 23:00:00      0.000     0.000     7.500     0.500
   01/08/2020 23:15:00      0.000     0.000     7.500     0.500
   01/08/2020 23:30:00      0.000     0.000     7.500     0.500
   01/08/2020 23:45:00      0.000     0.000     7.500     0.500
   01/09/2020 00:00:00      0.000     0.000     7.500     0.500
  
  
  <<< Link 149 >>>
  ----------------------------------------------------------------
                             Flow  Velocity     Depth  Capacity/
  Date        Time            CFS    ft/sec      feet   Setting 
  ----------------------------------------------------------------
   01/08/2020 14:00:00     -0.000    -0.000     0.000     0.000
   01/08/2020 14:15:00     -0.000    -0.000     0.000     0.000
   01/08/2020 14:30:00     -0.000    -0.000     0.000     0.000
   01/08/2020 14:45:00     -0.000    -0.000     0.000     0.000
   01/08/2020 15:00:00     -0.000    -0.000     0.000     0.000
   01/08/2020 15:15:00     -0.000    -0.000     0.000     0.000
   01/08/2020 15:30:00     -0.000    -0.000     0.000     0.000
   01/08/2020 15:45:00     -0.000    -0.000     0.000     0.000
   01/08/2020 16:00:00     -0.000    -0.000     0.000     0.000
   01/08/2020 16:15:00     -0.000    -0.000     0.000     0.000
   01/08/2020 16:30:00     -0.000    -0.000     0.000     0.000
   01/08/2020 16:45:00     -0.000    -0.000     0.000     0.000
   01/08/2020 17:00:00     -0.000    -0.000     0.000     0.000
   01/08/2020 17:15:00     -0.000    -0.000     0.000     0.000
   01/08/2020 17:30:00     -0.000    -0.000     0.000     0.000
   01/08/2020 17:45:00     -0.000    -0.000     0.000     0.000
   01/08/2020 18:00:00     -0.000    -0.000     0.000     0.000
   01/08/2020 18:15:00     -0.000    -0.000     0.000     0.000
   01/08/2020 18:30:00     -0.000    -0.000     0.000     0.000
   01/08/2020 18:45:00     -0.000    -0.000     0.000     0.000
   01/08/2020 19:00:00     -0.000    -0.000     0.000     0.000
   01/08/2020 19:15:00     -0.000    -0.000     0.000     0.000
   01/08/2020 19:30:00     -0.000    -0.000     0.000     0.000
   01/08/2020 19:45:00     -0.000    -0.000     0.000     0.000
   01/08/2020 20:00:00     -0.000    -0.000     0.000     0.000
   01/08/2020 20:15:00     -0.000    -0.000     0.000     0.000
   01/08/2020 20:30:00     -0.000    -0.000     0.000     0.000
   01/08/2020 20:45:00     -0.000    -0.000     0.000     0.000
   01/08/2020 21:00:00     -0.000    -0.000     0.000     0.000
   01/08/2020 21:15:00     -0.000    -0.000     0.000     0.000
   01/08/2020 21:30:00     -0.000    -0.000     0.000     0.000
   01/08/2020 21:45:00     -0.000    -0.000     0.000     0.000
   01/08/2020 22:00:00     -0.000    -0.000     0.000     0.000
   01/08/2020 22:15:00     -0.000    -0.000     0.000     0.000
   01/08/2020 22:30:00     -0.000    -0.000     0.000     0.000
   01/08/2020 22:45:00     -0.000    -0.000     0.000     0.000
   01/08/2020 23:00:00     -0.000    -0.000     0.000     0.000
   01/08/2020 23:15:00     -0.000    -0.000     0.000     0.000
   01/08/2020 23:30:00     -0.000    -0.000     0.000     0.000
   01/08/2020 23:45:00     -0.000    -0.000     0.000     0.000
   01/09/2020 00:00:00     -0.000    -0.000     0.000     0.000
  

  Analysis begun on:  Wed Dec 29 11:35:33 2021
  Analysis ended on:  Wed Dec 29 11:35:48 2021
  Total elapsed time: 00:00:15