
  EPA STORM WATER MANAGEMENT MODEL - VERSION 5.1 (Build 5.1.015)
  --------------------------------------------------------------

  WARNING 04: minimum elevation drop used for Conduit 28
  WARNING 04: minimum elevation drop used for Conduit 39
  WARNING 04: minimum elevation drop used for Conduit 43
  WARNING 04: minimum elevation drop used for Conduit 48
  WARNING 04: minimum elevation drop used for Conduit 76
  WARNING 04: minimum elevation drop used for Conduit 78
  WARNING 04: minimum elevation drop used for Conduit 80
  WARNING 04: minimum elevation drop used for Conduit 85
  WARNING 08: elevation drop exceeds length for Conduit 92
  WARNING 04: minimum elevation drop used for Conduit 147
  WARNING 02: maximum depth increased for Node 1
  WARNING 02: maximum depth increased for Node 2
  WARNING 02: maximum depth increased for Node 70
  WARNING 02: maximum depth increased for Node 72
  WARNING 02: maximum depth increased for Node 91
  
  *********************************************************
  NOTE: The summary statistics displayed in this report are
  based on results found at every computational time step,  
  not just on results from each reporting time step.
  *********************************************************
  
  ****************
  Analysis Options
  ****************
  Flow Units ............... CFS
  Process Models:
    Rainfall/Runoff ........ NO
    RDII ................... NO
    Snowmelt ............... NO
    Groundwater ............ NO
    Flow Routing ........... YES
    Ponding Allowed ........ YES
    Water Quality .......... NO
  Flow Routing Method ...... DYNWAVE
  Surcharge Method ......... EXTRAN
  Starting Date ............ 01/01/2020 00:00:00
  Ending Date .............. 01/09/2020 00:00:00
  Antecedent Dry Days ...... 0.0
  Report Time Step ......... 00:15:00
  Routing Time Step ........ 30.00 sec
  Variable Time Step ....... YES
  Maximum Trials ........... 10
  Number of Threads ........ 1
  Head Tolerance ........... 0.005000 ft
  
  
  **************************        Volume        Volume
  Flow Routing Continuity        acre-feet      10^6 gal
  **************************     ---------     ---------
  Dry Weather Inflow .......         0.000         0.000
  Wet Weather Inflow .......         0.000         0.000
  Groundwater Inflow .......         0.000         0.000
  RDII Inflow ..............         0.000         0.000
  External Inflow ..........    176033.124     57363.023
  External Outflow .........     15620.462      5090.161
  Flooding Loss ............    159729.926     52050.383
  Evaporation Loss .........         0.000         0.000
  Exfiltration Loss ........         0.000         0.000
  Initial Stored Volume ....        -0.306        -0.100
  Final Stored Volume ......       626.099       204.024
  Continuity Error (%) .....         0.032
  
  
  *************************
  Highest Continuity Errors
  *************************
  Node 102 (88.67%)
  Node 3 (35.34%)
  Node 59 (34.38%)
  Node 103 (22.26%)
  Node 58 (19.30%)
  
  
  ***************************
  Time-Step Critical Elements
  ***************************
  Link 88 (292.38%)
  Link 71 (143.13%)
  Link 103 (136.75%)
  Link 15 (119.25%)
  Link 149 (92.26%)
  
  
  ********************************
  Highest Flow Instability Indexes
  ********************************
  Link 20 (112)
  Link 19 (111)
  Link 21 (108)
  Link 85 (106)
  Link 39 (92)
  
  
  *************************
  Routing Time Step Summary
  *************************
  Minimum Time Step           :     1.34 sec
  Average Time Step           :     5.00 sec
  Maximum Time Step           :    30.00 sec
  Percent in Steady State     :    94.79
  Average Iterations per Step :     8.33
  Percent Not Converging      :   325.12
  Time Step Frequencies       :
     30.000 -  3.817 sec      :    58.28 %
      3.817 -  0.486 sec      :    41.72 %
      0.486 -  0.062 sec      :     0.00 %
      0.062 -  0.008 sec      :     0.00 %
      0.008 -  0.001 sec      :     0.00 %
  
  
  ******************
  Node Depth Summary
  ******************
  
  ---------------------------------------------------------------------------------
                                 Average  Maximum  Maximum  Time of Max    Reported
                                   Depth    Depth      HGL   Occurrence   Max Depth
  Node                 Type         Feet     Feet     Feet  days hr:min        Feet
  ---------------------------------------------------------------------------------
  1                    JUNCTION     0.00     0.00    10.01     0  00:00        0.00
  2                    JUNCTION     0.00     0.00     8.99     7  14:00        0.00
  3                    JUNCTION    11.81    11.81     8.59     7  15:52       11.81
  4                    JUNCTION    10.15    10.15     8.59     7  21:17       10.15
  5                    JUNCTION     0.00     0.00     8.59     7  22:47        0.00
  6                    JUNCTION     4.59     4.72     6.39     7  17:18        4.68
  7                    JUNCTION     8.52     8.67     6.41     7  17:18        8.60
  8                    JUNCTION    54.25    54.55     6.56     7  17:09       54.38
  9                    JUNCTION    54.22    54.54     6.58     7  17:09       54.32
  10                   JUNCTION    82.13    82.41     6.54     7  17:09       82.22
  11                   JUNCTION    92.07    92.30     6.49     7  16:58       92.16
  12                   JUNCTION    24.69    24.97     6.54     7  22:45       24.78
  13                   JUNCTION    18.06    18.35     6.55     7  14:38       18.15
  14                   JUNCTION    17.95    18.26     6.57     7  21:11       18.04
  15                   JUNCTION    30.74    31.04     6.56     7  16:47       30.86
  16                   JUNCTION    14.18    14.43     6.51     7  16:47       14.31
  19                   JUNCTION    25.66    25.82     7.02     7  14:06       25.74
  20                   JUNCTION    30.66    30.79     6.99     7  14:06       30.73
  21                   JUNCTION    27.86    27.98     6.98     7  14:06       27.93
  22                   JUNCTION    19.36    19.44     6.94     7  17:09       19.41
  23                   JUNCTION    12.06    12.10     6.90     7  19:11       12.09
  24                   JUNCTION     0.36     0.39     6.89     7  16:22        0.38
  25                   JUNCTION     0.18     0.19     6.49     7  18:26        0.18
  26                   JUNCTION    17.86    18.00     6.40     7  17:08       17.94
  27                   JUNCTION    18.16    18.27     6.37     7  17:09       18.24
  28                   JUNCTION    14.26    14.35     6.35     7  17:16       14.33
  29                   JUNCTION    14.26    14.34     6.34     7  17:30       14.34
  30                   JUNCTION    27.96    28.05     6.35     7  17:14       28.04
  31                   JUNCTION    28.06    28.15     6.35     7  17:14       28.13
  32                   JUNCTION    53.86    53.98     6.38     7  17:14       53.93
  33                   JUNCTION    50.76    50.90     6.40     7  17:13       50.87
  34                   JUNCTION    17.96    18.08     6.38     7  17:14       18.07
  35                   JUNCTION     0.00     0.00    21.17     0  00:00        0.00
  36                   JUNCTION     1.56     1.60     6.90     7  21:01        1.60
  37                   JUNCTION     1.46     1.49     6.89     7  18:25        1.49
  38                   JUNCTION    19.86    19.89     6.89     7  16:21       19.88
  39                   JUNCTION    20.16    20.22     6.92     7  23:07       20.20
  40                   JUNCTION    41.07    41.16     6.96     7  22:16       41.10
  41                   JUNCTION    41.06    41.18     6.98     7  22:16       41.11
  42                   JUNCTION    68.36    68.49     6.99     7  22:16       68.42
  43                   JUNCTION    71.76    71.86     6.96     7  14:40       71.81
  44                   JUNCTION    33.06    33.14     6.94     7  15:58       33.12
  45                   JUNCTION    33.06    33.14     6.94     7  20:38       33.12
  46                   JUNCTION    23.27    23.41     7.01     7  23:24       23.33
  47                   JUNCTION    23.36    23.56     7.06     7  23:24       23.45
  48                   JUNCTION    34.67    34.89     7.09     7  23:24       34.74
  49                   JUNCTION    21.17    21.40     7.10     7  23:24       21.25
  50                   JUNCTION    21.16    21.38     7.08     7  23:24       21.25
  51                   JUNCTION    17.37    17.48     6.98     7  23:24       17.45
  52                   JUNCTION     3.87     3.96     6.96     7  20:38        3.94
  53                   JUNCTION    27.32    29.47     7.37     7  16:06       28.56
  54                   JUNCTION     6.12     6.77     5.87     7  21:19        6.60
  55                   JUNCTION     5.22     5.80     5.80     7  21:18        5.53
  56                   JUNCTION    18.92    19.73     6.03     7  18:07       19.48
  57                   JUNCTION    18.42    19.28     6.08     7  18:07       19.01
  58                   JUNCTION    25.72    27.21     6.71     7  18:07       26.31
  59                   JUNCTION    25.82    27.35     6.75     7  18:07       26.39
  60                   JUNCTION     0.00     0.00     7.19     7  14:00        0.00
  61                   JUNCTION     0.00     0.00    12.80     0  00:00        0.00
  62                   JUNCTION     0.00     0.00    15.00     0  00:00        0.00
  63                   JUNCTION     0.00     0.00    22.00     0  00:00        0.00
  64                   JUNCTION     0.00     0.00    18.00     0  00:00        0.00
  65                   JUNCTION     0.00     0.00    11.00     0  00:00        0.00
  66                   JUNCTION     9.26     9.35     6.35     7  17:14        9.34
  67                   JUNCTION    11.96    12.04     6.34     7  17:13       12.03
  70                   JUNCTION    32.26    32.36     6.36     7  17:13       32.33
  71                   JUNCTION    17.45    17.55     6.36     7  17:12       17.52
  72                   JUNCTION    21.52    23.74     7.44     7  16:04       22.58
  73                   JUNCTION    22.24    25.84     8.84     7  21:15       23.50
  74                   JUNCTION    10.25    12.47     7.47     7  14:40       11.96
  75                   JUNCTION    17.14    30.00    18.10     7  21:16       18.30
  76                   JUNCTION     8.24    10.07     7.07     7  21:15        8.78
  77                   JUNCTION    11.50    13.67     7.42     7  21:15       12.12
  78                   JUNCTION    24.92    25.73     6.03     7  21:21       25.61
  79                   JUNCTION    24.92    25.74     6.04     7  21:20       25.59
  80                   JUNCTION    17.82    18.68     6.08     7  21:20       18.56
  81                   JUNCTION    17.82    18.71     6.11     7  21:21       18.58
  82                   JUNCTION    10.22    11.18     6.18     7  21:21       11.01
  83                   JUNCTION    22.97    23.08     6.98     7  22:16       23.00
  84                   JUNCTION    22.97    23.08     6.98     7  18:08       23.01
  85                   JUNCTION    50.57    50.66     6.96     7  22:16       50.60
  86                   JUNCTION    58.17    58.24     6.94     7  22:31       58.20
  87                   JUNCTION    46.87    46.91     6.91     7  20:44       46.89
  88                   JUNCTION    43.87    43.92     6.92     7  20:44       43.89
  89                   JUNCTION    43.87    43.95     6.95     7  16:05       43.91
  90                   JUNCTION    29.87    29.95     6.95     7  16:04       29.91
  91                   JUNCTION    11.67    11.72     6.92     7  20:32       11.70
  92                   JUNCTION     7.67     7.73     6.93     7  20:32        7.70
  18                   JUNCTION    21.52    23.25     6.95     7  16:06       22.53
  100                  JUNCTION    33.84    35.09     6.47     7  16:06       34.59
  102                  JUNCTION     4.21     4.21   -21.43     7  14:16        4.21
  103                  JUNCTION     0.95     0.95   -21.43     7  14:10        0.95
  104                  JUNCTION     0.94     0.94   -21.43     7  14:21        0.94
  105                  JUNCTION     0.00     0.00   -20.44     0  00:00        0.00
  106                  JUNCTION     0.00     0.00   -12.12     0  00:00        0.00
  107                  JUNCTION     0.00     0.00   -14.89     0  00:00        0.00
  108                  JUNCTION     0.00     0.00    -6.80     0  00:00        0.00
  109                  JUNCTION     0.00     0.00   -20.88     0  00:00        0.00
  110                  JUNCTION     0.00     0.00   -20.91     0  00:00        0.00
  111                  JUNCTION     0.00     0.00   -20.98     0  00:00        0.00
  112                  JUNCTION     0.00     0.00   -21.00     0  00:00        0.00
  113                  JUNCTION     0.00     0.00   -80.80     0  00:00        0.00
  114                  JUNCTION     0.00     0.00   -83.18     0  00:00        0.00
  115                  JUNCTION     0.00     0.00   -71.75     0  00:00        0.00
  116                  JUNCTION     0.00     0.00   -71.87     0  00:00        0.00
  117                  JUNCTION     0.00     0.00   -98.50     0  00:00        0.00
  118                  JUNCTION     0.00     0.00   -22.98     0  00:00        0.00
  119                  JUNCTION     0.00     0.00   -20.15     0  00:00        0.00
  120                  JUNCTION     0.00     0.00   -17.42     0  00:00        0.00
  121                  JUNCTION     0.00     0.00    -3.19     0  00:00        0.00
  122                  JUNCTION     0.00     0.00    -3.43     0  00:00        0.00
  123                  JUNCTION     0.00     0.00   -10.64     0  00:00        0.00
  124                  JUNCTION     0.00     0.00    -6.50     0  00:00        0.00
  125                  JUNCTION     0.00     0.00    -7.20     0  00:00        0.00
  126                  JUNCTION     0.00     0.00   -19.38     0  00:00        0.00
  127                  JUNCTION     0.00     0.00   -11.21     0  00:00        0.00
  128                  JUNCTION     0.00     0.00   -11.70     0  00:00        0.00
  129                  JUNCTION     0.00     0.00   -14.32     0  00:00        0.00
  130                  JUNCTION     0.00     0.00    -5.69     0  00:00        0.00
  131                  JUNCTION     0.00     0.00    31.65     0  00:00        0.00
  132                  JUNCTION     0.00     0.00    31.36     0  00:00        0.00
  133                  JUNCTION     0.00     0.00    40.24     0  00:00        0.00
  134                  JUNCTION     0.00     0.00    44.72     0  00:00        0.00
  135                  JUNCTION     0.00     0.00    44.62     0  00:00        0.00
  136                  JUNCTION     0.00     0.00    44.35     0  00:00        0.00
  137                  JUNCTION     0.00     0.00    34.51     0  00:00        0.00
  138                  JUNCTION     0.00     0.00    52.23     0  00:00        0.00
  139                  JUNCTION     0.00     0.00    49.93     0  00:00        0.00
  140                  JUNCTION     0.00     0.00    45.20     0  00:00        0.00
  141                  JUNCTION     0.00     0.00    49.13     0  00:00        0.00
  142                  JUNCTION     0.00     0.00    40.05     0  00:00        0.00
  143                  JUNCTION     0.00     0.00    39.90     0  00:00        0.00
  148                  JUNCTION    31.50    33.45     7.19     7  14:40       32.03
  68                   OUTFALL      0.00     0.84     7.34     7  21:15        0.00
  69                   OUTFALL      0.25     1.24     6.24     7  21:15        0.52
  93                   OUTFALL      0.00     0.00    13.89     0  00:00        0.00
  94                   OUTFALL      0.00     0.00    10.51     0  00:00        0.00
  95                   OUTFALL      0.08     0.08    12.78     8  00:00        0.08
  96                   OUTFALL      0.00     0.00    31.60     0  00:00        0.00
  97                   OUTFALL      0.00     0.00    17.55     0  00:00        0.00
  98                   OUTFALL      0.00     0.00    11.00     0  00:00        0.00
  99                   OUTFALL      0.16     0.57     6.67     7  14:39        0.34
  101                  OUTFALL      0.07     0.07    11.96     8  00:00        0.07
  144                  OUTFALL      0.00     0.00    32.22     0  00:00        0.00
  145                  OUTFALL      0.00     0.00     8.00     0  00:00        0.00
  146                  OUTFALL      0.00     0.00    39.90     0  00:00        0.00
  147                  OUTFALL      0.00     0.00    15.00     0  00:00        0.00
  
  
  *******************
  Node Inflow Summary
  *******************
  
  -------------------------------------------------------------------------------------------------
                                  Maximum  Maximum                  Lateral       Total        Flow
                                  Lateral    Total  Time of Max      Inflow      Inflow     Balance
                                   Inflow   Inflow   Occurrence      Volume      Volume       Error
  Node                 Type           CFS      CFS  days hr:min    10^6 gal    10^6 gal     Percent
  -------------------------------------------------------------------------------------------------
  1                    JUNCTION      0.00     0.00     0  00:00           0           0       0.000 gal
  2                    JUNCTION      0.00     0.00     0  00:00           0       0.362       0.020
  3                    JUNCTION      0.00     0.01     7  21:16           0        38.8      54.658
  4                    JUNCTION      0.00     0.01     7  21:15           0        43.4       2.852
  5                    JUNCTION      0.00     0.00     7  14:45           0        24.7       0.444
  6                    JUNCTION      0.00    44.27     7  16:14           0         511       0.162
  7                    JUNCTION      0.00    53.21     7  17:07           0         487       0.106
  8                    JUNCTION     17.67    54.25     7  17:07        0.98         606       0.470
  9                    JUNCTION      2.12    47.09     7  18:06      0.0152         659       0.394
  10                   JUNCTION      0.00    43.72     7  18:07           0         802       0.494
  11                   JUNCTION      0.00    42.14     7  18:07           0    1.12e+03       0.412
  12                   JUNCTION      0.00    42.05     7  18:07           0    1.12e+03       0.217
  13                   JUNCTION      0.00    42.64     7  18:43           0     1.1e+03       0.169
  14                   JUNCTION      0.00    56.15     7  14:40           0    1.11e+03       0.293
  15                   JUNCTION      0.00    58.44     7  18:08           0    1.11e+03       0.267
  16                   JUNCTION      0.00    67.61     7  14:37           0    2.72e+04      -0.000
  19                   JUNCTION      0.00     5.58     7  21:51           0    7.15e+03       0.058
  20                   JUNCTION      0.00    11.65     7  21:08           0         411       1.136
  21                   JUNCTION      0.00    14.52     7  19:15           0         406       0.837
  22                   JUNCTION      0.00    18.71     7  14:05           0         402       0.816
  23                   JUNCTION      0.00    18.67     7  14:05           0         402       0.443
  24                   JUNCTION      0.00    25.82     7  23:19           0         633       0.016
  25                   JUNCTION      0.00     8.79     7  16:22           0         315       0.082
  26                   JUNCTION      0.00    68.00     7  17:16           0         639       0.597
  27                   JUNCTION      0.00    69.89     7  17:01           0         388       0.873
  28                   JUNCTION      0.00    80.25     7  17:02           0         385       0.712
  29                   JUNCTION      0.00    90.82     7  17:01           0         391       0.712
  30                   JUNCTION      0.00    67.05     7  17:10           0         375       2.012
  31                   JUNCTION      0.00    62.57     7  17:10           0    1.78e+03       0.354
  32                   JUNCTION      0.00    20.63     7  17:01           0     1.7e+03       0.164
  33                   JUNCTION      0.00    20.46     7  17:01           0     1.7e+03       0.169
  34                   JUNCTION      0.00    19.51     7  17:02           0    2.93e+03       0.097
  35                   JUNCTION      0.00     0.00     0  00:00           0           0       0.000 gal
  36                   JUNCTION      0.00    14.34     7  20:56           0        15.6       3.210
  37                   JUNCTION      0.00    26.24     7  20:57           0        34.1       1.103
  38                   JUNCTION      0.00    41.86     7  20:59           0         642       0.955
  39                   JUNCTION      0.00    38.70     7  20:59           0         623       0.514
  40                   JUNCTION      0.00    43.15     7  20:58           0         683       1.727
  41                   JUNCTION      0.00    24.69     7  15:53           0         261       1.132
  42                   JUNCTION      0.00    19.73     7  20:35           0         258       1.195
  43                   JUNCTION      0.00    19.46     7  20:34           0         274       0.945
  44                   JUNCTION      0.00    20.10     7  16:01           0         271       1.036
  45                   JUNCTION      0.00    19.40     7  20:35           0         266       1.687
  46                   JUNCTION      0.00    18.11     7  19:16           0         261       1.317
  47                   JUNCTION      0.00    16.48     7  19:16           0         250       0.755
  48                   JUNCTION      0.00    16.75     7  20:32           0         248       0.815
  49                   JUNCTION      0.00    22.72     7  18:37           0         246       1.192
  50                   JUNCTION      0.00    18.22     7  16:02           0         241       1.243
  51                   JUNCTION      0.00    21.37     7  19:15           0    1.15e+03       0.192
  52                   JUNCTION      0.00    21.42     7  19:15           0     3.6e+03       0.010
  53                   JUNCTION      0.00  1414.04     7  16:04           0         245       1.358
  54                   JUNCTION      0.00   625.65     7  14:48           0         234       0.588
  55                   JUNCTION      0.00   527.06     7  14:49           0         220       0.769
  56                   JUNCTION      0.00   174.48     7  21:24           0         216       3.515
  57                   JUNCTION      0.00    52.19     7  18:07           0        29.1      17.294
  58                   JUNCTION      0.00    37.28     7  18:07           0        21.1      23.913
  59                   JUNCTION      0.00    18.65     7  18:07           0        14.2      52.404
  60                   JUNCTION      0.00     0.00     0  00:00           0        3.63      -0.029
  61                   JUNCTION      0.00     0.00     0  00:00           0           0       0.000 gal
  62                   JUNCTION      0.00     0.00     0  00:00           0           0       0.000 gal
  63                   JUNCTION      0.00     0.00     0  00:00           0           0       0.000 gal
  64                   JUNCTION      0.00     0.00     0  00:00           0           0       0.000 gal
  65                   JUNCTION      0.00     0.00     0  00:00           0           0       0.000 gal
  66                   JUNCTION      0.00    33.30     7  23:27           0        45.3       5.492
  67                   JUNCTION      0.00    53.04     7  17:02           0         193       1.524
  70                   JUNCTION      0.00    29.95     7  16:08           0    1.66e+03       0.291
  71                   JUNCTION      0.00    29.00     7  16:08           0         171       1.543
  72                   JUNCTION      0.00  5715.62     7  21:15           0         358      -0.995
  73                   JUNCTION      0.00  4869.66     7  17:07           0         413      -1.222
  74                   JUNCTION      0.00  1097.03     7  14:40           0        73.1       0.469
  75                   JUNCTION      0.00  2006.82     7  21:16           0         242       0.739
  76                   JUNCTION      0.00   993.96     7  21:15           0         146      -0.454
  77                   JUNCTION      0.00  1069.87     7  21:15           0        52.9      -1.330
  78                   JUNCTION      0.00   174.80     7  21:24           0         217       2.005
  79                   JUNCTION      0.00   174.60     7  21:24           0         598       0.518
  80                   JUNCTION      0.00   165.03     7  21:24           0         598       0.420
  81                   JUNCTION      0.00   159.39     7  21:24           0         714       0.278
  82                   JUNCTION      0.00   129.41     7  21:29           0    4.17e+03       0.031
  83                   JUNCTION      0.00    35.75     7  17:01           0         481       1.789
  84                   JUNCTION      0.00    32.39     7  22:47           0         485       0.880
  85                   JUNCTION      0.00    31.44     7  20:35           0         459       0.358
  86                   JUNCTION      0.00    31.20     7  20:35           0         460       0.332
  87                   JUNCTION      0.00    44.25     7  17:37           0         465       1.368
  88                   JUNCTION      0.00    38.83     7  15:33           0         486       1.105
  89                   JUNCTION      0.00    23.78     7  20:34           0    1.25e+03       0.227
  90                   JUNCTION      0.00    24.03     7  20:34           0    4.41e+03       0.074
  91                   JUNCTION      0.00    24.46     7  21:11           0    1.24e+04       0.006
  92                   JUNCTION      0.00    16.23     7  17:20           0    2.43e+03       0.031
  18                   JUNCTION      0.00   402.57     7  14:42           0         215      -0.228
  100                  JUNCTION      0.00   403.37     7  14:42           0         218       1.306
  102                  JUNCTION      0.00     0.14     7  14:13           0        1.33     782.987
  103                  JUNCTION      0.00     0.14     7  14:07           0        1.84      28.639
  104                  JUNCTION      0.00     0.10     7  14:07           0        1.91      12.668
  105                  JUNCTION      0.00     0.00     0  00:00           0           0       0.000 gal
  106                  JUNCTION      0.00     0.00     0  00:00           0           0       0.000 gal
  107                  JUNCTION      0.00     0.00     0  00:00           0           0       0.000 gal
  108                  JUNCTION      0.00     0.00     0  00:00           0           0       0.000 gal
  109                  JUNCTION      0.00     0.00     0  00:00           0           0       0.000 gal
  110                  JUNCTION      0.00     0.00     0  00:00           0           0       0.000 gal
  111                  JUNCTION      0.00     0.00     0  00:00           0           0       0.000 gal
  112                  JUNCTION      0.00     0.00     0  00:00           0           0       0.000 gal
  113                  JUNCTION      0.00     0.00     0  00:00           0           0       0.000 gal
  114                  JUNCTION      0.00     0.00     0  00:00           0           0       0.000 gal
  115                  JUNCTION      0.00     0.00     0  00:00           0           0       0.000 gal
  116                  JUNCTION      0.00     0.00     0  00:00           0           0       0.000 gal
  117                  JUNCTION      0.00     0.00     0  00:00           0           0       0.000 gal
  118                  JUNCTION      0.00     0.00     0  00:00           0           0       0.000 gal
  119                  JUNCTION      0.00     0.00     0  00:00           0           0       0.000 gal
  120                  JUNCTION      0.00     0.00     0  00:00           0           0       0.000 gal
  121                  JUNCTION      0.00     0.00     0  00:00           0           0       0.000 gal
  122                  JUNCTION      0.00     0.00     0  00:00           0           0       0.000 gal
  123                  JUNCTION      0.00     0.00     0  00:00           0           0       0.000 gal
  124                  JUNCTION      0.00     0.00     0  00:00           0           0       0.000 gal
  125                  JUNCTION      0.00     0.00     0  00:00           0           0       0.000 gal
  126                  JUNCTION      0.00     0.00     0  00:00           0           0       0.000 gal
  127                  JUNCTION      0.00     0.00     0  00:00           0           0       0.000 gal
  128                  JUNCTION      0.00     0.00     0  00:00           0           0       0.000 gal
  129                  JUNCTION      0.00     0.00     0  00:00           0           0       0.000 gal
  130                  JUNCTION      0.00     0.00     0  00:00           0           0       0.000 gal
  131                  JUNCTION      0.00     0.00     0  00:00           0           0       0.000 gal
  132                  JUNCTION      0.00     0.00     0  00:00           0           0       0.000 gal
  133                  JUNCTION      0.00     0.00     0  00:00           0           0       0.000 gal
  134                  JUNCTION      0.00     0.00     0  00:00           0           0       0.000 gal
  135                  JUNCTION      0.00     0.00     0  00:00           0           0       0.000 gal
  136                  JUNCTION      0.00     0.00     0  00:00           0           0       0.000 gal
  137                  JUNCTION      0.00     0.00     0  00:00           0           0       0.000 gal
  138                  JUNCTION      0.00     0.00     0  00:00           0           0       0.000 gal
  139                  JUNCTION      0.00     0.00     0  00:00           0           0       0.000 gal
  140                  JUNCTION      0.00     0.00     0  00:00           0           0       0.000 gal
  141                  JUNCTION      0.00     0.00     0  00:00           0           0       0.000 gal
  142                  JUNCTION      0.00     0.00     0  00:00           0           0       0.000 gal
  143                  JUNCTION      0.00     0.00     0  00:00           0           0       0.000 gal
  148                  JUNCTION      0.00  1113.27     7  14:40           0         144      -4.930
  68                   OUTFALL       0.00    33.84     7  21:15           0        16.6       0.000
  69                   OUTFALL       0.00   404.00     7  21:15           0         132       0.000
  93                   OUTFALL       0.00     0.00     0  00:00           0           0       0.000 gal
  94                   OUTFALL       0.00     0.00     0  00:00           0         602       0.000
  95                   OUTFALL       0.00     8.18     8  00:00           0    2.43e+03       0.000
  96                   OUTFALL       0.00     0.00     0  00:00           0           0       0.000 gal
  97                   OUTFALL       0.00     0.00     0  00:00           0           0       0.000 gal
  98                   OUTFALL       0.00     0.00     0  00:00           0         363       0.000
  99                   OUTFALL       0.00   114.18     7  14:39           0         982       0.000
  101                  OUTFALL       0.00     3.88     8  00:00           0         588       0.000
  144                  OUTFALL       0.00     0.00     0  00:00           0           0       0.000 gal
  145                  OUTFALL       0.00     0.00     0  00:00           0           0       0.000 gal
  146                  OUTFALL       0.00     0.00     0  00:00           0           0       0.000 gal
  147                  OUTFALL       0.00     0.00     0  00:00           0           0       0.000 gal
  
  
  **********************
  Node Surcharge Summary
  **********************
  
  Surcharging occurs when water rises above the top of the highest conduit.
  ---------------------------------------------------------------------
                                               Max. Height   Min. Depth
                                   Hours       Above Crown    Below Rim
  Node                 Type      Surcharged           Feet         Feet
  ---------------------------------------------------------------------
  8                    JUNCTION       10.00         28.549        5.451
  9                    JUNCTION       10.00         28.537        5.463
  10                   JUNCTION       10.00         62.907        2.593
  11                   JUNCTION       10.00         72.804        2.696
  12                   JUNCTION       10.00          5.473        5.027
  13                   JUNCTION       10.00          1.353        6.647
  14                   JUNCTION       10.00          1.259        6.741
  15                   JUNCTION       10.00         14.038        8.962
  19                   JUNCTION       10.00         10.515        4.185
  20                   JUNCTION       10.00         12.791        9.209
  21                   JUNCTION       10.00          9.982       12.018
  22                   JUNCTION       10.00          3.438       20.562
  32                   JUNCTION       10.00         37.882       26.018
  33                   JUNCTION       10.00         34.797       29.103
  39                   JUNCTION       10.00          0.919       19.781
  40                   JUNCTION       10.00         21.862       18.838
  41                   JUNCTION       10.00         24.183       18.817
  42                   JUNCTION       10.00         51.490       11.510
  43                   JUNCTION       10.00         54.862        8.138
  46                   JUNCTION       10.00          6.707       26.593
  47                   JUNCTION       10.00          6.860       26.440
  48                   JUNCTION       10.00         19.190       25.110
  49                   JUNCTION       10.00          5.196       28.604
  50                   JUNCTION       10.00          5.182       28.618
  51                   JUNCTION       10.00          1.278       12.522
  56                   JUNCTION       10.00          3.432       20.268
  57                   JUNCTION       10.00          3.526       20.724
  58                   JUNCTION       10.00          7.505       22.795
  59                   JUNCTION       10.00          7.652       22.648
  73                   JUNCTION        0.05          1.541        3.159
  75                   JUNCTION        0.01         11.300        0.000
  78                   JUNCTION       10.00          6.228        4.272
  79                   JUNCTION       10.00          6.238        4.262
  80                   JUNCTION       10.00          1.777       11.323
  81                   JUNCTION       10.00          1.806       11.294
  83                   JUNCTION       10.00          8.080       11.920
  84                   JUNCTION       10.00          6.476       11.924
  85                   JUNCTION       10.00         34.056       19.344
  86                   JUNCTION       10.00         41.640       11.760
  89                   JUNCTION       10.00         27.347        6.053
  90                   JUNCTION       10.00         13.345       10.055
  18                   JUNCTION       10.00          6.646       11.754
  100                  JUNCTION       10.00         18.494       14.906
  148                  JUNCTION       10.00          9.153        6.547
  
  
  *********************
  Node Flooding Summary
  *********************
  
  Flooding refers to all water that overflows a node, whether it ponds or not.
  --------------------------------------------------------------------------
                                                             Total   Maximum
                                 Maximum   Time of Max       Flood    Ponded
                        Hours       Rate    Occurrence      Volume     Depth
  Node                 Flooded       CFS   days hr:min    10^6 gal      Feet
  --------------------------------------------------------------------------
  75                      0.01   1209.21      7  21:16       0.018     0.000
  
  
  ***********************
  Outfall Loading Summary
  ***********************
  
  -----------------------------------------------------------
                         Flow       Avg       Max       Total
                         Freq      Flow      Flow      Volume
  Outfall Node           Pcnt       CFS       CFS    10^6 gal
  -----------------------------------------------------------
  68                     1.24      7.62     33.84      16.552
  69                    97.71     37.85    404.00     131.962
  93                     0.00      0.00      0.00       0.000
  94                     0.00      0.00      0.00     601.902
  95                   100.00      8.09      8.18    2431.079
  96                     0.00      0.00      0.00       0.000
  97                     0.00      0.00      0.00       0.000
  98                     0.00      0.00      0.00     362.955
  99                    99.01     15.74    114.18     982.382
  101                  100.00      3.84      3.88     588.240
  144                    0.00      0.00      0.00       0.000
  145                    0.00      0.00      0.00       0.000
  146                    0.00      0.00      0.00       0.000
  147                    0.00      0.00      0.00       0.000
  -----------------------------------------------------------
  System                28.43     73.14    452.80    5115.071
  
  
  ********************
  Link Flow Summary
  ********************
  
  -----------------------------------------------------------------------------
                                 Maximum  Time of Max   Maximum    Max/    Max/
                                  |Flow|   Occurrence   |Veloc|    Full    Full
  Link                 Type          CFS  days hr:min    ft/sec    Flow   Depth
  -----------------------------------------------------------------------------
  1                    CONDUIT      0.00     0  00:00      0.00    0.00    0.00
  2                    CONDUIT      0.00     0  00:00      0.00    0.00    0.37
  3                    CONDUIT      0.01     7  21:16      0.00    0.00    0.78
  4                    CONDUIT      0.00     7  14:45      0.00    0.00    0.32
  5                    CONDUIT      0.00     7  22:47      0.00    0.00    0.15
  6                    CONDUIT     40.85     7  17:08      0.19    0.00    0.42
  7                    CONDUIT     53.21     7  17:07      0.17    0.00    0.72
  8                    CONDUIT     51.77     7  14:40      0.06    0.02    1.00
  9                    CONDUIT     43.72     7  18:07      0.12    0.00    1.00
  10                   CONDUIT     42.14     7  18:07      0.12    0.01    1.00
  11                   CONDUIT     42.05     7  18:07      0.12    0.00    1.00
  12                   CONDUIT     42.64     7  18:43      0.08    0.00    1.00
  13                   CONDUIT     50.13     7  18:08      0.11    0.04    1.00
  14                   CONDUIT     58.44     7  18:08      0.12    0.01    1.00
  15                   CONDUIT     65.95     7  18:38      0.15    0.00    0.92
  19                   CONDUIT      5.58     7  21:51      0.01    0.00    1.00
  20                   CONDUIT     12.46     7  14:05      0.01    0.00    1.00
  21                   CONDUIT     18.71     7  14:05      0.04    0.00    1.00
  22                   CONDUIT     17.46     7  14:05      0.03    0.00    0.90
  23                   CONDUIT     13.97     7  15:53      0.11    0.00    0.33
  24                   CONDUIT      8.79     7  16:22      0.75    0.00    0.02
  25                   CONDUIT      8.34     7  18:26      0.03    0.00    0.30
  26                   CONDUIT     69.89     7  17:01      0.17    0.03    0.77
  27                   CONDUIT     80.25     7  17:02      0.12    0.01    0.86
  28                   CONDUIT     90.82     7  17:01      0.12    0.22    0.80
  29                   CONDUIT     38.73     7  17:10      0.10    0.00    0.94
  30                   CONDUIT     64.27     7  14:48      0.04    0.01    0.94
  31                   CONDUIT     20.63     7  17:01      0.05    0.00    1.00
  32                   CONDUIT     20.46     7  17:01      0.05    0.00    1.00
  33                   CONDUIT     19.94     7  14:48      0.05    0.00    1.00
  34                   CONDUIT      0.00     0  00:00      0.00    0.00    0.05
  35                   CONDUIT     14.34     7  20:56      0.16    0.00    0.06
  36                   CONDUIT     26.24     7  20:57      0.09    0.00    0.36
  37                   CONDUIT     41.86     7  20:59      0.04    0.01    1.00
  38                   CONDUIT     38.70     7  20:59      0.09    0.00    1.00
  39                   CONDUIT     25.68     7  20:27      0.03    0.07    1.00
  40                   CONDUIT     19.73     7  20:35      0.04    0.00    1.00
  41                   CONDUIT     19.46     7  20:34      0.09    0.01    1.00
  42                   CONDUIT     19.55     7  20:34      0.09    0.00    1.00
  43                   CONDUIT     20.10     7  16:01      0.04    0.12    0.98
  44                   CONDUIT     18.11     7  19:16      0.05    0.00    1.00
  45                   CONDUIT     17.03     7  16:02      0.04    0.02    1.00
  46                   CONDUIT     16.75     7  20:32      0.05    0.00    1.00
  47                   CONDUIT     16.43     7  16:03      0.05    0.00    1.00
  48                   CONDUIT     22.72     7  18:37      0.02    0.07    1.00
  49                   CONDUIT     21.37     7  19:15      0.06    0.00    1.00
  50                   CONDUIT     21.42     7  19:15      0.07    0.00    0.62
  51                   CONDUIT    403.71     7  14:42      1.30    0.03    0.70
  52                   CONDUIT    625.65     7  14:48      1.30    0.02    0.25
  53                   CONDUIT    175.16     7  21:24      0.67    0.03    0.68
  54                   CONDUIT     52.19     7  18:07      0.05    0.01    1.00
  55                   CONDUIT     38.78     7  21:57      0.11    0.01    1.00
  56                   CONDUIT     19.45     7  21:57      0.02    0.00    1.00
  57                   CONDUIT      0.00     7  14:00      0.00    0.00    0.50
  58                   CONDUIT      0.00     0  00:00      0.00    0.00    0.00
  59                   CONDUIT      0.00     0  00:00      0.00    0.00    0.00
  60                   CONDUIT      0.00     0  00:00      0.00    0.00    0.00
  61                   CONDUIT      0.00     0  00:00      0.00    0.00    0.00
  62                   CONDUIT      0.00     0  00:00      0.00    0.00    0.00
  63                   CONDUIT      0.00     0  00:00      0.00    0.00    0.30
  64                   CONDUIT     33.30     7  23:27      0.04    0.00    0.64
  65                   CONDUIT     31.90     7  16:11      0.07    0.00    0.85
  67                   CONDUIT     29.35     7  17:07      0.06    0.00    0.86
  68                   CONDUIT     29.00     7  16:08      0.03    0.00    1.00
  69                   CONDUIT   1394.47     7  14:40      1.75    0.02    0.78
  70                   CONDUIT   4803.03     7  21:15      2.43    0.17    1.00
  71                   CONDUIT   1518.13     7  18:44      2.76    0.05    1.00
  72                   CONDUIT   1633.75     7  21:15      4.57    0.19    1.00
  73                   CONDUIT    993.96     7  21:15      2.81    0.06    0.74
  74                   CONDUIT   1069.87     7  21:15      2.49    0.08    0.93
  75                   CONDUIT    174.48     7  21:24      0.44    0.04    1.00
  76                   CONDUIT    174.80     7  21:24      0.19    0.44    1.00
  77                   CONDUIT    174.60     7  21:24      0.44    0.03    1.00
  78                   CONDUIT    165.03     7  21:24      0.21    0.53    1.00
  79                   CONDUIT    159.39     7  21:24      0.46    0.02    0.84
  80                   CONDUIT     35.75     7  17:01      0.02    0.06    1.00
  81                   CONDUIT     32.39     7  22:47      0.07    0.00    1.00
  82                   CONDUIT     31.44     7  20:35      0.06    0.00    1.00
  83                   CONDUIT     31.20     7  20:35      0.06    0.00    1.00
  84                   CONDUIT     44.25     7  17:37      0.02    0.00    0.91
  85                   CONDUIT     25.54     7  18:43      0.05    0.15    1.00
  86                   CONDUIT     23.78     7  20:34      0.05    0.00    1.00
  87                   CONDUIT     24.03     7  20:34      0.06    0.00    0.85
  88                   CONDUIT     24.46     7  21:11      0.17    0.00    0.24
  89                   CONDUIT      0.00     0  00:00      0.00    0.00    0.11
  90                   CONDUIT     23.50     7  19:09      0.06    0.00    0.51
  91                   CONDUIT     31.88     7  20:35      0.02    0.00    1.00
  92                   CONDUIT      0.00     0  00:00      0.00    0.00    0.50
  93                   CONDUIT     49.62     7  17:11      0.10    0.00    0.66
  94                   CONDUIT     53.04     7  17:02      0.29    0.01    1.00
  95                   CONDUIT     33.84     7  21:15      0.26    0.00    0.24
  96                   CONDUIT    404.00     7  21:15      2.43    0.01    0.19
  97                   CONDUIT      0.00     0  00:00      0.00    0.00    0.21
  98                   CONDUIT      3.88     8  00:00      0.03    0.00    0.19
  99                   CONDUIT      0.00     0  00:00      0.00    0.00    0.10
  100                  CONDUIT      8.18     8  00:00      0.05    0.00    0.13
  101                  CONDUIT      0.00     0  00:00      0.00    0.00    0.00
  102                  CONDUIT      0.00     0  00:00      0.00    0.00    0.29
  103                  CONDUIT    114.18     7  14:39      0.53    0.00    0.37
  104                  CONDUIT      0.00     0  00:00      0.00    0.00    0.36
  17                   CONDUIT    403.37     7  14:42      1.04    0.03    1.00
  18                   CONDUIT    402.57     7  14:42      1.03    0.04    1.00
  66                   CONDUIT      0.14     7  14:13      0.00    0.00    0.13
  105                  CONDUIT      0.10     7  14:01      0.00    0.00    0.04
  106                  CONDUIT      0.00     0  00:00      0.00    0.00    0.02
  107                  CONDUIT      0.00     0  00:00      0.00    0.00    0.00
  108                  CONDUIT      0.00     0  00:00      0.00    0.00    0.00
  109                  CONDUIT      0.00     0  00:00      0.00    0.00    0.00
  110                  CONDUIT      0.00     0  00:00      0.00    0.00    0.00
  111                  CONDUIT      0.00     0  00:00      0.00    0.00    0.00
  112                  CONDUIT      0.00     0  00:00      0.00    0.00    0.00
  113                  CONDUIT      0.00     0  00:00      0.00    0.00    0.00
  114                  CONDUIT      0.00     0  00:00      0.00    0.00    0.00
  115                  CONDUIT      0.00     0  00:00      0.00    0.00    0.00
  116                  CONDUIT      0.00     0  00:00      0.00    0.00    0.00
  117                  CONDUIT      0.00     0  00:00      0.00    0.00    0.00
  118                  CONDUIT      0.00     0  00:00      0.00    0.00    0.00
  119                  CONDUIT      0.00     0  00:00      0.00    0.00    0.00
  120                  CONDUIT      0.00     0  00:00      0.00    0.00    0.00
  121                  CONDUIT      0.00     0  00:00      0.00    0.00    0.00
  122                  CONDUIT      0.00     0  00:00      0.00    0.00    0.00
  123                  CONDUIT      0.00     0  00:00      0.00    0.00    0.00
  124                  CONDUIT      0.00     0  00:00      0.00    0.00    0.00
  125                  CONDUIT      0.00     0  00:00      0.00    0.00    0.00
  126                  CONDUIT      0.00     0  00:00      0.00    0.00    0.00
  127                  CONDUIT      0.00     0  00:00      0.00    0.00    0.00
  128                  CONDUIT      0.00     0  00:00      0.00    0.00    0.00
  129                  CONDUIT      0.00     0  00:00      0.00    0.00    0.00
  130                  CONDUIT      0.00     0  00:00      0.00    0.00    0.00
  131                  CONDUIT      0.00     0  00:00      0.00    0.00    0.00
  132                  CONDUIT      0.00     0  00:00      0.00    0.00    0.00
  133                  CONDUIT      0.00     0  00:00      0.00    0.00    0.00
  134                  CONDUIT      0.00     0  00:00      0.00    0.00    0.00
  135                  CONDUIT      0.00     0  00:00      0.00    0.00    0.00
  136                  CONDUIT      0.00     0  00:00      0.00    0.00    0.00
  137                  CONDUIT      0.00     0  00:00      0.00    0.00    0.00
  138                  CONDUIT      0.00     0  00:00      0.00    0.00    0.00
  139                  CONDUIT      0.00     0  00:00      0.00    0.00    0.00
  140                  CONDUIT      0.00     0  00:00      0.00    0.00    0.00
  141                  CONDUIT      0.00     0  00:00      0.00    0.00    0.00
  142                  CONDUIT      0.00     0  00:00      0.00    0.00    0.00
  143                  CONDUIT      0.00     0  00:00      0.00    0.00    0.00
  145                  CONDUIT      0.00     0  00:00      0.00    0.00    0.00
  146                  CONDUIT      0.00     0  00:00      0.00    0.00    0.00
  147                  CONDUIT      0.00     0  00:00      0.00    0.00    0.00
  148                  CONDUIT      0.00     0  00:00      0.00    0.00    0.50
  149                  CONDUIT   1107.81     7  14:41      2.44    0.04    0.76
  
  
  ***************************
  Flow Classification Summary
  ***************************
  
  -------------------------------------------------------------------------------------
                      Adjusted    ---------- Fraction of Time in Flow Class ---------- 
                       /Actual         Up    Down  Sub   Sup   Up    Down  Norm  Inlet 
  Conduit               Length    Dry  Dry   Dry   Crit  Crit  Crit  Crit  Ltd   Ctrl  
  -------------------------------------------------------------------------------------
  1                       1.00   1.00  0.00  0.00  0.00  0.00  0.00  0.00  0.00  0.00
  2                       1.00   0.00  1.00  0.00  0.00  0.00  0.00  0.00  0.05  0.00
  3                       1.00   0.00  0.00  0.00  1.00  0.00  0.00  0.00  0.00  0.00
  4                       1.00   0.00  0.00  0.00  1.00  0.00  0.00  0.00  0.00  0.00
  5                       1.16   0.00  0.99  0.00  0.01  0.00  0.00  0.00  0.05  0.00
  6                       1.00   0.00  0.00  0.00  1.00  0.00  0.00  0.00  0.00  0.00
  7                       1.00   0.00  0.00  0.00  1.00  0.00  0.00  0.00  0.00  0.00
  8                       1.00   0.00  0.00  0.00  1.00  0.00  0.00  0.00  0.00  0.00
  9                       1.00   0.00  0.00  0.00  1.00  0.00  0.00  0.00  0.00  0.00
  10                      1.00   0.00  0.00  0.00  1.00  0.00  0.00  0.00  0.00  0.00
  11                      1.00   0.00  0.00  0.00  1.00  0.00  0.00  0.00  0.00  0.00
  12                      1.00   0.00  0.00  0.00  1.00  0.00  0.00  0.00  0.00  0.00
  13                      1.00   0.00  0.00  0.00  1.00  0.00  0.00  0.00  0.00  0.00
  14                      1.00   0.00  0.00  0.00  1.00  0.00  0.00  0.00  0.00  0.00
  15                      1.12   0.00  0.00  0.00  1.00  0.00  0.00  0.00  0.00  0.00
  19                      1.00   0.00  0.00  0.00  1.00  0.00  0.00  0.00  0.00  0.00
  20                      1.00   0.00  0.00  0.00  1.00  0.00  0.00  0.00  0.00  0.00
  21                      1.00   0.00  0.00  0.00  1.00  0.00  0.00  0.00  0.00  0.00
  22                      1.00   0.00  0.00  0.00  1.00  0.00  0.00  0.00  0.00  0.00
  23                      1.00   0.00  0.00  0.00  1.00  0.00  0.00  0.00  0.00  0.00
  24                      1.00   0.00  0.00  0.00  1.00  0.00  0.00  0.00  0.00  0.00
  25                      1.49   0.00  0.00  0.00  1.00  0.00  0.00  0.00  0.05  0.00
  26                      1.00   0.00  0.00  0.00  1.00  0.00  0.00  0.00  0.00  0.00
  27                      1.00   0.00  0.00  0.00  1.00  0.00  0.00  0.00  0.00  0.00
  28                      1.00   0.00  0.00  0.00  1.00  0.00  0.00  0.00  0.00  0.00
  29                      1.00   0.00  0.00  0.00  1.00  0.00  0.00  0.00  0.00  0.00
  30                      1.00   0.00  0.00  0.00  1.00  0.00  0.00  0.00  0.00  0.00
  31                      1.00   0.00  0.00  0.00  1.00  0.00  0.00  0.00  0.00  0.00
  32                      1.00   0.00  0.00  0.00  1.00  0.00  0.00  0.00  0.00  0.00
  33                      1.00   0.00  0.00  0.00  1.00  0.00  0.00  0.00  0.00  0.00
  34                      1.00   0.00  1.00  0.00  0.00  0.00  0.00  0.00  0.00  0.00
  35                      1.00   0.00  0.00  0.00  1.00  0.00  0.00  0.00  0.00  0.00
  36                      1.00   0.00  0.00  0.00  1.00  0.00  0.00  0.00  0.00  0.00
  37                      1.00   0.00  0.00  0.00  1.00  0.00  0.00  0.00  0.00  0.00
  38                      1.00   0.00  0.00  0.00  1.00  0.00  0.00  0.00  0.00  0.00
  39                      1.00   0.00  0.00  0.00  1.00  0.00  0.00  0.00  0.00  0.00
  40                      1.00   0.00  0.00  0.00  1.00  0.00  0.00  0.00  0.00  0.00
  41                      1.00   0.00  0.00  0.00  1.00  0.00  0.00  0.00  0.00  0.00
  42                      1.00   0.00  0.00  0.00  1.00  0.00  0.00  0.00  0.00  0.00
  43                      1.00   0.00  0.00  0.00  1.00  0.00  0.00  0.00  0.00  0.00
  44                      1.00   0.00  0.00  0.00  1.00  0.00  0.00  0.00  0.00  0.00
  45                      1.00   0.00  0.00  0.00  1.00  0.00  0.00  0.00  0.00  0.00
  46                      1.03   0.00  0.00  0.00  1.00  0.00  0.00  0.00  0.00  0.00
  47                      1.00   0.00  0.00  0.00  1.00  0.00  0.00  0.00  0.00  0.00
  48                      1.00   0.00  0.00  0.00  1.00  0.00  0.00  0.00  0.00  0.00
  49                      1.00   0.00  0.00  0.00  1.00  0.00  0.00  0.00  0.00  0.00
  50                      1.00   0.00  0.00  0.00  1.00  0.00  0.00  0.00  0.00  0.00
  51                      1.00   0.00  0.00  0.00  1.00  0.00  0.00  0.00  0.00  0.00
  52                      1.00   0.00  0.00  0.00  1.00  0.00  0.00  0.00  0.00  0.00
  53                      1.00   0.00  0.00  0.00  1.00  0.00  0.00  0.00  0.00  0.00
  54                      1.00   0.00  0.00  0.00  1.00  0.00  0.00  0.00  0.00  0.00
  55                      1.00   0.00  0.00  0.00  1.00  0.00  0.00  0.00  0.00  0.00
  56                      1.00   0.00  0.00  0.00  1.00  0.00  0.00  0.00  0.00  0.00
  57                      1.00   0.00  0.00  0.00  1.00  0.00  0.00  0.00  0.05  0.00
  58                      1.00   0.00  1.00  0.00  0.00  0.00  0.00  0.00  0.00  0.00
  59                      1.00   1.00  0.00  0.00  0.00  0.00  0.00  0.00  0.00  0.00
  60                      1.00   1.00  0.00  0.00  0.00  0.00  0.00  0.00  0.00  0.00
  61                      1.00   1.00  0.00  0.00  0.00  0.00  0.00  0.00  0.00  0.00
  62                      1.04   1.00  0.00  0.00  0.00  0.00  0.00  0.00  0.00  0.00
  63                      1.00   0.00  1.00  0.00  0.00  0.00  0.00  0.00  0.00  0.00
  64                      1.00   0.00  0.00  0.00  1.00  0.00  0.00  0.00  0.00  0.00
  65                      1.00   0.00  0.00  0.00  1.00  0.00  0.00  0.00  0.00  0.00
  67                      1.00   0.00  0.00  0.00  1.00  0.00  0.00  0.00  0.00  0.00
  68                      1.95   0.00  0.00  0.00  1.00  0.00  0.00  0.00  0.00  0.00
  69                      3.49   0.00  0.00  0.00  1.00  0.00  0.00  0.00  0.00  0.00
  70                      1.00   0.00  0.00  0.00  1.00  0.00  0.00  0.00  0.00  0.00
  71                      1.63   0.00  0.00  0.00  1.00  0.00  0.00  0.00  0.00  0.00
  72                      1.00   0.00  0.00  0.00  1.00  0.00  0.00  0.00  0.00  0.00
  73                      1.00   0.00  0.00  0.00  1.00  0.00  0.00  0.00  0.00  0.00
  74                      1.00   0.00  0.00  0.00  1.00  0.00  0.00  0.00  0.00  0.00
  75                      1.00   0.00  0.00  0.00  1.00  0.00  0.00  0.00  0.00  0.00
  76                      1.00   0.00  0.00  0.00  1.00  0.00  0.00  0.00  0.00  0.00
  77                      1.00   0.00  0.00  0.00  1.00  0.00  0.00  0.00  0.00  0.00
  78                      1.00   0.00  0.00  0.00  1.00  0.00  0.00  0.00  0.00  0.00
  79                      1.00   0.00  0.00  0.00  1.00  0.00  0.00  0.00  0.00  0.00
  80                      1.00   0.00  0.00  0.00  1.00  0.00  0.00  0.00  0.00  0.00
  81                      1.00   0.00  0.00  0.00  1.00  0.00  0.00  0.00  0.00  0.00
  82                      1.00   0.00  0.00  0.00  1.00  0.00  0.00  0.00  0.00  0.00
  83                      1.00   0.00  0.00  0.00  1.00  0.00  0.00  0.00  0.00  0.00
  84                      1.00   0.00  0.00  0.00  1.00  0.00  0.00  0.00  0.00  0.00
  85                      1.00   0.00  0.00  0.00  1.00  0.00  0.00  0.00  0.00  0.00
  86                      1.00   0.00  0.00  0.00  1.00  0.00  0.00  0.00  0.00  0.00
  87                      1.00   0.00  0.00  0.00  1.00  0.00  0.00  0.00  0.00  0.00
  88                      1.04   0.00  0.00  0.00  1.00  0.00  0.00  0.00  0.00  0.00
  89                      1.00   0.00  1.00  0.00  0.00  0.00  0.00  0.00  0.00  0.00
  90                      9.81   0.00  0.00  0.00  1.00  0.00  0.00  0.00  0.00  0.00
  91                     40.90   0.00  0.00  0.00  1.00  0.00  0.00  0.00  0.00  0.00
  92                    776.95   0.00  1.00  0.00  0.00  0.00  0.00  0.00  0.00  0.00
  93                      8.28   0.00  0.00  0.00  1.00  0.00  0.00  0.00  0.00  0.00
  94                      1.46   0.00  0.00  0.00  1.00  0.00  0.00  0.00  0.00  0.00
  95                      1.00   0.00  0.99  0.00  0.01  0.00  0.00  0.00  0.05  0.00
  96                      1.93   0.00  0.02  0.00  0.98  0.00  0.00  0.00  0.01  0.00
  97                      1.21   0.00  1.00  0.00  0.00  0.00  0.00  0.00  0.00  0.00
  98                      1.20   0.00  0.00  0.00  1.00  0.00  0.00  0.00  0.05  0.00
  99                      1.35   0.00  1.00  0.00  0.00  0.00  0.00  0.00  0.05  0.00
  100                     1.54   0.00  0.00  0.00  1.00  0.00  0.00  0.00  0.05  0.00
  101                     1.00   1.00  0.00  0.00  0.00  0.00  0.00  0.00  0.00  0.00
  102                     1.16   0.00  1.00  0.00  0.00  0.00  0.00  0.00  0.00  0.00
  103                     1.00   0.00  0.01  0.00  0.99  0.00  0.00  0.00  0.01  0.00
  104                     1.00   0.00  1.00  0.00  0.00  0.00  0.00  0.00  0.05  0.00
  17                      1.00   0.00  0.00  0.00  1.00  0.00  0.00  0.00  0.00  0.00
  18                      1.00   0.00  0.00  0.00  1.00  0.00  0.00  0.00  0.00  0.00
  66                      1.00   0.00  0.00  0.00  1.00  0.00  0.00  0.00  0.00  0.00
  105                     1.00   0.00  0.00  0.00  1.00  0.00  0.00  0.00  0.00  0.00
  106                     1.00   0.00  1.00  0.00  0.00  0.00  0.00  0.00  0.00  0.00
  107                     1.00   1.00  0.00  0.00  0.00  0.00  0.00  0.00  0.00  0.00
  108                     1.00   1.00  0.00  0.00  0.00  0.00  0.00  0.00  0.00  0.00
  109                     1.00   1.00  0.00  0.00  0.00  0.00  0.00  0.00  0.00  0.00
  110                     1.00   1.00  0.00  0.00  0.00  0.00  0.00  0.00  0.00  0.00
  111                     1.00   1.00  0.00  0.00  0.00  0.00  0.00  0.00  0.00  0.00
  112                     1.00   1.00  0.00  0.00  0.00  0.00  0.00  0.00  0.00  0.00
  113                     1.31   1.00  0.00  0.00  0.00  0.00  0.00  0.00  0.00  0.00
  114                     1.00   1.00  0.00  0.00  0.00  0.00  0.00  0.00  0.00  0.00
  115                     1.00   1.00  0.00  0.00  0.00  0.00  0.00  0.00  0.00  0.00
  116                     1.00   1.00  0.00  0.00  0.00  0.00  0.00  0.00  0.00  0.00
  117                     1.00   1.00  0.00  0.00  0.00  0.00  0.00  0.00  0.00  0.00
  118                     1.00   1.00  0.00  0.00  0.00  0.00  0.00  0.00  0.00  0.00
  119                     1.00   1.00  0.00  0.00  0.00  0.00  0.00  0.00  0.00  0.00
  120                     1.00   1.00  0.00  0.00  0.00  0.00  0.00  0.00  0.00  0.00
  121                     1.00   1.00  0.00  0.00  0.00  0.00  0.00  0.00  0.00  0.00
  122                     1.00   1.00  0.00  0.00  0.00  0.00  0.00  0.00  0.00  0.00
  123                     1.27   1.00  0.00  0.00  0.00  0.00  0.00  0.00  0.00  0.00
  124                     1.00   1.00  0.00  0.00  0.00  0.00  0.00  0.00  0.00  0.00
  125                     1.00   1.00  0.00  0.00  0.00  0.00  0.00  0.00  0.00  0.00
  126                     1.00   1.00  0.00  0.00  0.00  0.00  0.00  0.00  0.00  0.00
  127                     1.00   1.00  0.00  0.00  0.00  0.00  0.00  0.00  0.00  0.00
  128                     1.00   1.00  0.00  0.00  0.00  0.00  0.00  0.00  0.00  0.00
  129                     1.00   1.00  0.00  0.00  0.00  0.00  0.00  0.00  0.00  0.00
  130                     1.00   1.00  0.00  0.00  0.00  0.00  0.00  0.00  0.00  0.00
  131                     1.00   1.00  0.00  0.00  0.00  0.00  0.00  0.00  0.00  0.00
  132                     1.85   1.00  0.00  0.00  0.00  0.00  0.00  0.00  0.00  0.00
  133                     1.00   1.00  0.00  0.00  0.00  0.00  0.00  0.00  0.00  0.00
  134                     1.00   1.00  0.00  0.00  0.00  0.00  0.00  0.00  0.00  0.00
  135                     1.12   1.00  0.00  0.00  0.00  0.00  0.00  0.00  0.00  0.00
  136                     1.00   1.00  0.00  0.00  0.00  0.00  0.00  0.00  0.00  0.00
  137                     1.00   1.00  0.00  0.00  0.00  0.00  0.00  0.00  0.00  0.00
  138                     1.00   1.00  0.00  0.00  0.00  0.00  0.00  0.00  0.00  0.00
  139                     1.00   1.00  0.00  0.00  0.00  0.00  0.00  0.00  0.00  0.00
  140                     1.33   1.00  0.00  0.00  0.00  0.00  0.00  0.00  0.00  0.00
  141                     1.18   1.00  0.00  0.00  0.00  0.00  0.00  0.00  0.00  0.00
  142                     1.00   1.00  0.00  0.00  0.00  0.00  0.00  0.00  0.00  0.00
  143                     1.00   1.00  0.00  0.00  0.00  0.00  0.00  0.00  0.00  0.00
  145                     1.00   1.00  0.00  0.00  0.00  0.00  0.00  0.00  0.00  0.00
  146                     2.31   1.00  0.00  0.00  0.00  0.00  0.00  0.00  0.00  0.00
  147                    90.89   1.00  0.00  0.00  0.00  0.00  0.00  0.00  0.00  0.00
  148                     2.61   0.00  1.00  0.00  0.00  0.00  0.00  0.00  0.00  0.00
  149                     1.00   0.00  0.00  0.00  1.00  0.00  0.00  0.00  0.00  0.00
  
  
  *************************
  Conduit Surcharge Summary
  *************************
  
  ----------------------------------------------------------------------------
                                                           Hours        Hours 
                         --------- Hours Full --------   Above Full   Capacity
  Conduit                Both Ends  Upstream  Dnstream   Normal Flow   Limited
  ----------------------------------------------------------------------------
  7                           0.01      0.01     10.00      0.01         0.01
  8                          10.00     10.00     10.00      0.01         2.09
  9                          10.00     10.00     10.00      0.01         0.01
  10                         10.00     10.00     10.00      0.01         0.01
  11                         10.00     10.00     10.00      0.01         0.01
  12                         10.00     10.00     10.00      0.01         0.01
  13                         10.00     10.00     10.00      0.01         0.01
  14                         10.00     10.00     10.00      0.01         0.01
  15                          0.01      0.01     10.00      0.01         0.01
  19                         10.00     10.00     10.00      0.01         0.01
  20                         10.00     10.00     10.00      0.01         0.01
  21                         10.00     10.00     10.00      0.01         0.01
  22                          0.01      0.01     10.00      0.01         0.01
  29                          0.01      0.01     10.00      0.01         0.01
  31                         10.00     10.00     10.00      0.01         0.01
  32                         10.00     10.00     10.00      0.01         0.01
  33                         10.00     10.00     10.00      0.01         0.01
  37                         10.00     10.00     10.00      0.01         0.01
  38                         10.00     10.00     10.00      0.01         0.01
  39                         10.00     10.00     10.00      0.01         5.12
  40                         10.00     10.00     10.00      0.01         0.01
  41                         10.00     10.00     10.00      0.01         0.01
  42                         10.00     10.00     10.00      0.01         0.01
  44                         10.00     10.00     10.00      0.01         0.01
  45                         10.00     10.00     10.00      0.01         0.01
  46                         10.00     10.00     10.00      0.01         0.01
  47                         10.00     10.00     10.00      0.01         0.01
  48                         10.00     10.00     10.00      0.01         4.88
  49                         10.00     10.00     10.00      0.01         0.01
  50                          0.01      0.01     10.00      0.01         0.01
  51                          0.01      0.01     10.00      0.01         0.01
  53                          0.01      0.01     10.00      0.01         0.01
  54                         10.00     10.00     10.00      0.01         0.01
  55                         10.00     10.00     10.00      0.01         0.01
  56                         10.00     10.00     10.00      0.01         0.54
  57                          0.01      0.01     10.00      0.01         0.01
  65                          0.01      0.01     10.00      0.01         0.01
  68                         10.00     10.00     10.00      0.01         0.01
  70                          9.62      9.69      9.93      0.01         0.29
  71                          0.05      0.05     10.00      0.01         0.01
  72                         10.00     10.00     10.00      0.01         0.01
  73                          0.01      0.01      0.01      0.01         0.01
  74                          0.01      0.01     10.00      0.01         0.01
  75                         10.00     10.00     10.00      0.01         0.01
  76                         10.00     10.00     10.00      0.01         4.61
  77                         10.00     10.00     10.00      0.01         0.01
  78                         10.00     10.00     10.00      0.01         4.69
  79                          0.01      0.01     10.00      0.01         0.01
  80                         10.00     10.00     10.00      0.01         4.65
  81                         10.00     10.00     10.00      0.01         0.01
  82                         10.00     10.00     10.00      0.01         0.01
  83                         10.00     10.00     10.00      0.01         0.01
  85                         10.00     10.00     10.00      0.01         4.76
  86                         10.00     10.00     10.00      0.01         0.01
  87                          0.01      0.01     10.00      0.01         0.01
  90                          0.01      0.01     10.00      0.01         0.01
  91                         10.00     10.00     10.00      0.01         0.01
  93                          0.01      0.01     10.00      0.01         0.01
  94                         10.00     10.00     10.00      0.01         0.01
  17                         10.00     10.00     10.00      0.01         0.01
  18                         10.00     10.00     10.00      0.01         0.01
  149                         0.01      0.01     10.00      0.01         0.01
  
  
  ************
  Node Results
  ************
  
  <<< Node 1 >>>
  ----------------------------------------------------------------
                           Inflow  Flooding     Depth      Head
  Date        Time            CFS       CFS      feet      feet
  ----------------------------------------------------------------
   01/08/2020 14:00:00      0.000     0.000     0.000    10.010
   01/08/2020 14:15:00      0.000     0.000     0.000    10.010
   01/08/2020 14:30:00      0.000     0.000     0.000    10.010
   01/08/2020 14:45:00      0.000     0.000     0.000    10.010
   01/08/2020 15:00:00      0.000     0.000     0.000    10.010
   01/08/2020 15:15:00      0.000     0.000     0.000    10.010
   01/08/2020 15:30:00      0.000     0.000     0.000    10.010
   01/08/2020 15:45:00      0.000     0.000     0.000    10.010
   01/08/2020 16:00:00      0.000     0.000     0.000    10.010
   01/08/2020 16:15:00      0.000     0.000     0.000    10.010
   01/08/2020 16:30:00      0.000     0.000     0.000    10.010
   01/08/2020 16:45:00      0.000     0.000     0.000    10.010
   01/08/2020 17:00:00      0.000     0.000     0.000    10.010
   01/08/2020 17:15:00      0.000     0.000     0.000    10.010
   01/08/2020 17:30:00      0.000     0.000     0.000    10.010
   01/08/2020 17:45:00      0.000     0.000     0.000    10.010
   01/08/2020 18:00:00      0.000     0.000     0.000    10.010
   01/08/2020 18:15:00      0.000     0.000     0.000    10.010
   01/08/2020 18:30:00      0.000     0.000     0.000    10.010
   01/08/2020 18:45:00      0.000     0.000     0.000    10.010
   01/08/2020 19:00:00      0.000     0.000     0.000    10.010
   01/08/2020 19:15:00      0.000     0.000     0.000    10.010
   01/08/2020 19:30:00      0.000     0.000     0.000    10.010
   01/08/2020 19:45:00      0.000     0.000     0.000    10.010
   01/08/2020 20:00:00      0.000     0.000     0.000    10.010
   01/08/2020 20:15:00      0.000     0.000     0.000    10.010
   01/08/2020 20:30:00      0.000     0.000     0.000    10.010
   01/08/2020 20:45:00      0.000     0.000     0.000    10.010
   01/08/2020 21:00:00      0.000     0.000     0.000    10.010
   01/08/2020 21:15:00      0.000     0.000     0.000    10.010
   01/08/2020 21:30:00      0.000     0.000     0.000    10.010
   01/08/2020 21:45:00      0.000     0.000     0.000    10.010
   01/08/2020 22:00:00      0.000     0.000     0.000    10.010
   01/08/2020 22:15:00      0.000     0.000     0.000    10.010
   01/08/2020 22:30:00      0.000     0.000     0.000    10.010
   01/08/2020 22:45:00      0.000     0.000     0.000    10.010
   01/08/2020 23:00:00      0.000     0.000     0.000    10.010
   01/08/2020 23:15:00      0.000     0.000     0.000    10.010
   01/08/2020 23:30:00      0.000     0.000     0.000    10.010
   01/08/2020 23:45:00      0.000     0.000     0.000    10.010
   01/09/2020 00:00:00      0.000     0.000     0.000    10.010
  
  
  <<< Node 2 >>>
  ----------------------------------------------------------------
                           Inflow  Flooding     Depth      Head
  Date        Time            CFS       CFS      feet      feet
  ----------------------------------------------------------------
   01/08/2020 14:00:00      0.000     0.000     0.000     8.990
   01/08/2020 14:15:00      0.000     0.000     0.000     8.990
   01/08/2020 14:30:00      0.000     0.000     0.000     8.990
   01/08/2020 14:45:00      0.000     0.000     0.000     8.990
   01/08/2020 15:00:00      0.000     0.000     0.000     8.990
   01/08/2020 15:15:00      0.000     0.000     0.000     8.990
   01/08/2020 15:30:00      0.000     0.000     0.000     8.990
   01/08/2020 15:45:00      0.000     0.000     0.000     8.990
   01/08/2020 16:00:00      0.000     0.000     0.000     8.990
   01/08/2020 16:15:00      0.000     0.000     0.000     8.990
   01/08/2020 16:30:00      0.000     0.000     0.000     8.990
   01/08/2020 16:45:00      0.000     0.000     0.000     8.990
   01/08/2020 17:00:00      0.000     0.000     0.000     8.990
   01/08/2020 17:15:00      0.000     0.000     0.000     8.990
   01/08/2020 17:30:00      0.000     0.000     0.000     8.990
   01/08/2020 17:45:00      0.000     0.000     0.000     8.990
   01/08/2020 18:00:00      0.000     0.000     0.000     8.990
   01/08/2020 18:15:00      0.000     0.000     0.000     8.990
   01/08/2020 18:30:00      0.000     0.000     0.000     8.990
   01/08/2020 18:45:00      0.000     0.000     0.000     8.990
   01/08/2020 19:00:00      0.000     0.000     0.000     8.990
   01/08/2020 19:15:00      0.000     0.000     0.000     8.990
   01/08/2020 19:30:00      0.000     0.000     0.000     8.990
   01/08/2020 19:45:00      0.000     0.000     0.000     8.990
   01/08/2020 20:00:00      0.000     0.000     0.000     8.990
   01/08/2020 20:15:00      0.000     0.000     0.000     8.990
   01/08/2020 20:30:00      0.000     0.000     0.000     8.990
   01/08/2020 20:45:00      0.000     0.000     0.000     8.990
   01/08/2020 21:00:00      0.000     0.000     0.000     8.990
   01/08/2020 21:15:00      0.000     0.000     0.000     8.990
   01/08/2020 21:30:00      0.000     0.000     0.000     8.990
   01/08/2020 21:45:00      0.000     0.000     0.000     8.990
   01/08/2020 22:00:00      0.000     0.000     0.000     8.990
   01/08/2020 22:15:00      0.000     0.000     0.000     8.990
   01/08/2020 22:30:00      0.000     0.000     0.000     8.990
   01/08/2020 22:45:00      0.000     0.000     0.000     8.990
   01/08/2020 23:00:00      0.000     0.000     0.000     8.990
   01/08/2020 23:15:00      0.000     0.000     0.000     8.990
   01/08/2020 23:30:00      0.000     0.000     0.000     8.990
   01/08/2020 23:45:00      0.000     0.000     0.000     8.990
   01/09/2020 00:00:00      0.000     0.000     0.000     8.990
  
  
  <<< Node 3 >>>
  ----------------------------------------------------------------
                           Inflow  Flooding     Depth      Head
  Date        Time            CFS       CFS      feet      feet
  ----------------------------------------------------------------
   01/08/2020 14:00:00      0.000     0.000    11.810     8.590
   01/08/2020 14:15:00      0.000     0.000    11.810     8.590
   01/08/2020 14:30:00      0.000     0.000    11.810     8.590
   01/08/2020 14:45:00      0.000     0.000    11.810     8.590
   01/08/2020 15:00:00      0.000     0.000    11.810     8.590
   01/08/2020 15:15:00      0.000     0.000    11.810     8.590
   01/08/2020 15:30:00      0.001     0.000    11.810     8.590
   01/08/2020 15:45:00      0.000     0.000    11.810     8.590
   01/08/2020 16:00:00      0.001     0.000    11.810     8.590
   01/08/2020 16:15:00      0.000     0.000    11.810     8.590
   01/08/2020 16:30:00      0.000     0.000    11.810     8.590
   01/08/2020 16:45:00      0.000     0.000    11.810     8.590
   01/08/2020 17:00:00      0.000     0.000    11.810     8.590
   01/08/2020 17:15:00      0.001     0.000    11.810     8.590
   01/08/2020 17:30:00      0.001     0.000    11.810     8.590
   01/08/2020 17:45:00      0.000     0.000    11.810     8.590
   01/08/2020 18:00:00      0.000     0.000    11.810     8.590
   01/08/2020 18:15:00      0.000     0.000    11.810     8.590
   01/08/2020 18:30:00      0.000     0.000    11.810     8.590
   01/08/2020 18:45:00      0.001     0.000    11.810     8.590
   01/08/2020 19:00:00      0.000     0.000    11.810     8.590
   01/08/2020 19:15:00      0.000     0.000    11.810     8.590
   01/08/2020 19:30:00      0.000     0.000    11.810     8.590
   01/08/2020 19:45:00      0.001     0.000    11.810     8.590
   01/08/2020 20:00:00      0.000     0.000    11.810     8.590
   01/08/2020 20:15:00      0.000     0.000    11.810     8.590
   01/08/2020 20:30:00      0.000     0.000    11.810     8.590
   01/08/2020 20:45:00      0.000     0.000    11.810     8.590
   01/08/2020 21:00:00      0.000     0.000    11.810     8.590
   01/08/2020 21:15:00      0.001     0.000    11.810     8.590
   01/08/2020 21:30:00      0.000     0.000    11.810     8.590
   01/08/2020 21:45:00      0.000     0.000    11.810     8.590
   01/08/2020 22:00:00      0.002     0.000    11.810     8.590
   01/08/2020 22:15:00      0.001     0.000    11.810     8.590
   01/08/2020 22:30:00      0.000     0.000    11.810     8.590
   01/08/2020 22:45:00      0.000     0.000    11.810     8.590
   01/08/2020 23:00:00      0.000     0.000    11.810     8.590
   01/08/2020 23:15:00      0.000     0.000    11.810     8.590
   01/08/2020 23:30:00      0.000     0.000    11.810     8.590
   01/08/2020 23:45:00      0.000     0.000    11.810     8.590
   01/09/2020 00:00:00      0.001     0.000    11.810     8.590
  
  
  <<< Node 4 >>>
  ----------------------------------------------------------------
                           Inflow  Flooding     Depth      Head
  Date        Time            CFS       CFS      feet      feet
  ----------------------------------------------------------------
   01/08/2020 14:00:00      0.001     0.000    10.150     8.590
   01/08/2020 14:15:00      0.000     0.000    10.150     8.590
   01/08/2020 14:30:00      0.000     0.000    10.150     8.590
   01/08/2020 14:45:00      0.002     0.000    10.150     8.590
   01/08/2020 15:00:00      0.000     0.000    10.150     8.590
   01/08/2020 15:15:00      0.000     0.000    10.150     8.590
   01/08/2020 15:30:00      0.000     0.000    10.150     8.590
   01/08/2020 15:45:00      0.001     0.000    10.150     8.590
   01/08/2020 16:00:00      0.000     0.000    10.150     8.590
   01/08/2020 16:15:00      0.000     0.000    10.150     8.590
   01/08/2020 16:30:00      0.000     0.000    10.150     8.590
   01/08/2020 16:45:00      0.001     0.000    10.150     8.590
   01/08/2020 17:00:00      0.001     0.000    10.150     8.590
[...]
   01/08/2020 16:15:00      0.000     0.000     0.000     0.000
   01/08/2020 16:30:00      0.000     0.000     0.000     0.000
   01/08/2020 16:45:00      0.000     0.000     0.000     0.000
   01/08/2020 17:00:00      0.000     0.000     0.000     0.000
   01/08/2020 17:15:00      0.000     0.000     0.000     0.000
   01/08/2020 17:30:00      0.000     0.000     0.000     0.000
   01/08/2020 17:45:00      0.000     0.000     0.000     0.000
   01/08/2020 18:00:00      0.000     0.000     0.000     0.000
   01/08/2020 18:15:00      0.000     0.000     0.000     0.000
   01/08/2020 18:30:00      0.000     0.000     0.000     0.000
   01/08/2020 18:45:00      0.000     0.000     0.000     0.000
   01/08/2020 19:00:00      0.000     0.000     0.000     0.000
   01/08/2020 19:15:00      0.000     0.000     0.000     0.000
   01/08/2020 19:30:00      0.000     0.000     0.000     0.000
   01/08/2020 19:45:00      0.000     0.000     0.000     0.000
   01/08/2020 20:00:00      0.000     0.000     0.000     0.000
   01/08/2020 20:15:00      0.000     0.000     0.000     0.000
   01/08/2020 20:30:00      0.000     0.000     0.000     0.000
   01/08/2020 20:45:00      0.000     0.000     0.000     0.000
   01/08/2020 21:00:00      0.000     0.000     0.000     0.000
   01/08/2020 21:15:00      0.000     0.000     0.000     0.000
   01/08/2020 21:30:00      0.000     0.000     0.000     0.000
   01/08/2020 21:45:00      0.000     0.000     0.000     0.000
   01/08/2020 22:00:00      0.000     0.000     0.000     0.000
   01/08/2020 22:15:00      0.000     0.000     0.000     0.000
   01/08/2020 22:30:00      0.000     0.000     0.000     0.000
   01/08/2020 22:45:00      0.000     0.000     0.000     0.000
   01/08/2020 23:00:00      0.000     0.000     0.000     0.000
   01/08/2020 23:15:00      0.000     0.000     0.000     0.000
   01/08/2020 23:30:00      0.000     0.000     0.000     0.000
   01/08/2020 23:45:00      0.000     0.000     0.000     0.000
   01/09/2020 00:00:00      0.000     0.000     0.000     0.000
  
  
  <<< Link 143 >>>
  ----------------------------------------------------------------
                             Flow  Velocity     Depth  Capacity/
  Date        Time            CFS    ft/sec      feet   Setting 
  ----------------------------------------------------------------
   01/08/2020 14:00:00      0.000     0.000     0.000     0.000
   01/08/2020 14:15:00      0.000     0.000     0.000     0.000
   01/08/2020 14:30:00      0.000     0.000     0.000     0.000
   01/08/2020 14:45:00      0.000     0.000     0.000     0.000
   01/08/2020 15:00:00      0.000     0.000     0.000     0.000
   01/08/2020 15:15:00      0.000     0.000     0.000     0.000
   01/08/2020 15:30:00      0.000     0.000     0.000     0.000
   01/08/2020 15:45:00      0.000     0.000     0.000     0.000
   01/08/2020 16:00:00      0.000     0.000     0.000     0.000
   01/08/2020 16:15:00      0.000     0.000     0.000     0.000
   01/08/2020 16:30:00      0.000     0.000     0.000     0.000
   01/08/2020 16:45:00      0.000     0.000     0.000     0.000
   01/08/2020 17:00:00      0.000     0.000     0.000     0.000
   01/08/2020 17:15:00      0.000     0.000     0.000     0.000
   01/08/2020 17:30:00      0.000     0.000     0.000     0.000
   01/08/2020 17:45:00      0.000     0.000     0.000     0.000
   01/08/2020 18:00:00      0.000     0.000     0.000     0.000
   01/08/2020 18:15:00      0.000     0.000     0.000     0.000
   01/08/2020 18:30:00      0.000     0.000     0.000     0.000
   01/08/2020 18:45:00      0.000     0.000     0.000     0.000
   01/08/2020 19:00:00      0.000     0.000     0.000     0.000
   01/08/2020 19:15:00      0.000     0.000     0.000     0.000
   01/08/2020 19:30:00      0.000     0.000     0.000     0.000
   01/08/2020 19:45:00      0.000     0.000     0.000     0.000
   01/08/2020 20:00:00      0.000     0.000     0.000     0.000
   01/08/2020 20:15:00      0.000     0.000     0.000     0.000
   01/08/2020 20:30:00      0.000     0.000     0.000     0.000
   01/08/2020 20:45:00      0.000     0.000     0.000     0.000
   01/08/2020 21:00:00      0.000     0.000     0.000     0.000
   01/08/2020 21:15:00      0.000     0.000     0.000     0.000
   01/08/2020 21:30:00      0.000     0.000     0.000     0.000
   01/08/2020 21:45:00      0.000     0.000     0.000     0.000
   01/08/2020 22:00:00      0.000     0.000     0.000     0.000
   01/08/2020 22:15:00      0.000     0.000     0.000     0.000
   01/08/2020 22:30:00      0.000     0.000     0.000     0.000
   01/08/2020 22:45:00      0.000     0.000     0.000     0.000
   01/08/2020 23:00:00      0.000     0.000     0.000     0.000
   01/08/2020 23:15:00      0.000     0.000     0.000     0.000
   01/08/2020 23:30:00      0.000     0.000     0.000     0.000
   01/08/2020 23:45:00      0.000     0.000     0.000     0.000
   01/09/2020 00:00:00      0.000     0.000     0.000     0.000
  
  
  <<< Link 145 >>>
  ----------------------------------------------------------------
                             Flow  Velocity     Depth  Capacity/
  Date        Time            CFS    ft/sec      feet   Setting 
  ----------------------------------------------------------------
   01/08/2020 14:00:00     -0.000    -0.000     0.000     0.000
   01/08/2020 14:15:00     -0.000    -0.000     0.000     0.000
   01/08/2020 14:30:00     -0.000    -0.000     0.000     0.000
   01/08/2020 14:45:00     -0.000    -0.000     0.000     0.000
   01/08/2020 15:00:00     -0.000    -0.000     0.000     0.000
   01/08/2020 15:15:00     -0.000    -0.000     0.000     0.000
   01/08/2020 15:30:00     -0.000    -0.000     0.000     0.000
   01/08/2020 15:45:00     -0.000    -0.000     0.000     0.000
   01/08/2020 16:00:00     -0.000    -0.000     0.000     0.000
   01/08/2020 16:15:00     -0.000    -0.000     0.000     0.000
   01/08/2020 16:30:00     -0.000    -0.000     0.000     0.000
   01/08/2020 16:45:00     -0.000    -0.000     0.000     0.000
   01/08/2020 17:00:00     -0.000    -0.000     0.000     0.000
   01/08/2020 17:15:00     -0.000    -0.000     0.000     0.000
   01/08/2020 17:30:00     -0.000    -0.000     0.000     0.000
   01/08/2020 17:45:00     -0.000    -0.000     0.000     0.000
   01/08/2020 18:00:00     -0.000    -0.000     0.000     0.000
   01/08/2020 18:15:00     -0.000    -0.000     0.000     0.000
   01/08/2020 18:30:00     -0.000    -0.000     0.000     0.000
   01/08/2020 18:45:00     -0.000    -0.000     0.000     0.000
   01/08/2020 19:00:00     -0.000    -0.000     0.000     0.000
   01/08/2020 19:15:00     -0.000    -0.000     0.000     0.000
   01/08/2020 19:30:00     -0.000    -0.000     0.000     0.000
   01/08/2020 19:45:00     -0.000    -0.000     0.000     0.000
   01/08/2020 20:00:00     -0.000    -0.000     0.000     0.000
   01/08/2020 20:15:00     -0.000    -0.000     0.000     0.000
   01/08/2020 20:30:00     -0.000    -0.000     0.000     0.000
   01/08/2020 20:45:00     -0.000    -0.000     0.000     0.000
   01/08/2020 21:00:00     -0.000    -0.000     0.000     0.000
   01/08/2020 21:15:00     -0.000    -0.000     0.000     0.000
   01/08/2020 21:30:00     -0.000    -0.000     0.000     0.000
   01/08/2020 21:45:00     -0.000    -0.000     0.000     0.000
   01/08/2020 22:00:00     -0.000    -0.000     0.000     0.000
   01/08/2020 22:15:00     -0.000    -0.000     0.000     0.000
   01/08/2020 22:30:00     -0.000    -0.000     0.000     0.000
   01/08/2020 22:45:00     -0.000    -0.000     0.000     0.000
   01/08/2020 23:00:00     -0.000    -0.000     0.000     0.000
   01/08/2020 23:15:00     -0.000    -0.000     0.000     0.000
   01/08/2020 23:30:00     -0.000    -0.000     0.000     0.000
   01/08/2020 23:45:00     -0.000    -0.000     0.000     0.000
   01/09/2020 00:00:00     -0.000    -0.000     0.000     0.000
  
  
  <<< Link 146 >>>
  ----------------------------------------------------------------
                             Flow  Velocity     Depth  Capacity/
  Date        Time            CFS    ft/sec      feet   Setting 
  ----------------------------------------------------------------
   01/08/2020 14:00:00     -0.000    -0.000     0.000     0.000
   01/08/2020 14:15:00     -0.000    -0.000     0.000     0.000
   01/08/2020 14:30:00     -0.000    -0.000     0.000     0.000
   01/08/2020 14:45:00     -0.000    -0.000     0.000     0.000
   01/08/2020 15:00:00     -0.000    -0.000     0.000     0.000
   01/08/2020 15:15:00     -0.000    -0.000     0.000     0.000
   01/08/2020 15:30:00     -0.000    -0.000     0.000     0.000
   01/08/2020 15:45:00     -0.000    -0.000     0.000     0.000
   01/08/2020 16:00:00     -0.000    -0.000     0.000     0.000
   01/08/2020 16:15:00     -0.000    -0.000     0.000     0.000
   01/08/2020 16:30:00     -0.000    -0.000     0.000     0.000
   01/08/2020 16:45:00     -0.000    -0.000     0.000     0.000
   01/08/2020 17:00:00     -0.000    -0.000     0.000     0.000
   01/08/2020 17:15:00     -0.000    -0.000     0.000     0.000
   01/08/2020 17:30:00     -0.000    -0.000     0.000     0.000
   01/08/2020 17:45:00     -0.000    -0.000     0.000     0.000
   01/08/2020 18:00:00     -0.000    -0.000     0.000     0.000
   01/08/2020 18:15:00     -0.000    -0.000     0.000     0.000
   01/08/2020 18:30:00     -0.000    -0.000     0.000     0.000
   01/08/2020 18:45:00     -0.000    -0.000     0.000     0.000
   01/08/2020 19:00:00     -0.000    -0.000     0.000     0.000
   01/08/2020 19:15:00     -0.000    -0.000     0.000     0.000
   01/08/2020 19:30:00     -0.000    -0.000     0.000     0.000
   01/08/2020 19:45:00     -0.000    -0.000     0.000     0.000
   01/08/2020 20:00:00     -0.000    -0.000     0.000     0.000
   01/08/2020 20:15:00     -0.000    -0.000     0.000     0.000
   01/08/2020 20:30:00     -0.000    -0.000     0.000     0.000
   01/08/2020 20:45:00     -0.000    -0.000     0.000     0.000
   01/08/2020 21:00:00     -0.000    -0.000     0.000     0.000
   01/08/2020 21:15:00     -0.000    -0.000     0.000     0.000
   01/08/2020 21:30:00     -0.000    -0.000     0.000     0.000
   01/08/2020 21:45:00     -0.000    -0.000     0.000     0.000
   01/08/2020 22:00:00     -0.000    -0.000     0.000     0.000
   01/08/2020 22:15:00     -0.000    -0.000     0.000     0.000
   01/08/2020 22:30:00     -0.000    -0.000     0.000     0.000
   01/08/2020 22:45:00     -0.000    -0.000     0.000     0.000
   01/08/2020 23:00:00     -0.000    -0.000     0.000     0.000
   01/08/2020 23:15:00     -0.000    -0.000     0.000     0.000
   01/08/2020 23:30:00     -0.000    -0.000     0.000     0.000
   01/08/2020 23:45:00     -0.000    -0.000     0.000     0.000
   01/09/2020 00:00:00     -0.000    -0.000     0.000     0.000
  
  
  <<< Link 147 >>>
  ----------------------------------------------------------------
                             Flow  Velocity     Depth  Capacity/
  Date        Time            CFS    ft/sec      feet   Setting 
  ----------------------------------------------------------------
   01/08/2020 14:00:00      0.000     0.000     0.000     0.000
   01/08/2020 14:15:00      0.000     0.000     0.000     0.000
   01/08/2020 14:30:00      0.000     0.000     0.000     0.000
   01/08/2020 14:45:00      0.000     0.000     0.000     0.000
   01/08/2020 15:00:00      0.000     0.000     0.000     0.000
   01/08/2020 15:15:00      0.000     0.000     0.000     0.000
   01/08/2020 15:30:00      0.000     0.000     0.000     0.000
   01/08/2020 15:45:00      0.000     0.000     0.000     0.000
   01/08/2020 16:00:00      0.000     0.000     0.000     0.000
   01/08/2020 16:15:00      0.000     0.000     0.000     0.000
   01/08/2020 16:30:00      0.000     0.000     0.000     0.000
   01/08/2020 16:45:00      0.000     0.000     0.000     0.000
   01/08/2020 17:00:00      0.000     0.000     0.000     0.000
   01/08/2020 17:15:00      0.000     0.000     0.000     0.000
   01/08/2020 17:30:00      0.000     0.000     0.000     0.000
   01/08/2020 17:45:00      0.000     0.000     0.000     0.000
   01/08/2020 18:00:00      0.000     0.000     0.000     0.000
   01/08/2020 18:15:00      0.000     0.000     0.000     0.000
   01/08/2020 18:30:00      0.000     0.000     0.000     0.000
   01/08/2020 18:45:00      0.000     0.000     0.000     0.000
   01/08/2020 19:00:00      0.000     0.000     0.000     0.000
   01/08/2020 19:15:00      0.000     0.000     0.000     0.000
   01/08/2020 19:30:00      0.000     0.000     0.000     0.000
   01/08/2020 19:45:00      0.000     0.000     0.000     0.000
   01/08/2020 20:00:00      0.000     0.000     0.000     0.000
   01/08/2020 20:15:00      0.000     0.000     0.000     0.000
   01/08/2020 20:30:00      0.000     0.000     0.000     0.000
   01/08/2020 20:45:00      0.000     0.000     0.000     0.000
   01/08/2020 21:00:00      0.000     0.000     0.000     0.000
   01/08/2020 21:15:00      0.000     0.000     0.000     0.000
   01/08/2020 21:30:00      0.000     0.000     0.000     0.000
   01/08/2020 21:45:00      0.000     0.000     0.000     0.000
   01/08/2020 22:00:00      0.000     0.000     0.000     0.000
   01/08/2020 22:15:00      0.000     0.000     0.000     0.000
   01/08/2020 22:30:00      0.000     0.000     0.000     0.000
   01/08/2020 22:45:00      0.000     0.000     0.000     0.000
   01/08/2020 23:00:00      0.000     0.000     0.000     0.000
   01/08/2020 23:15:00      0.000     0.000     0.000     0.000
   01/08/2020 23:30:00      0.000     0.000     0.000     0.000
   01/08/2020 23:45:00      0.000     0.000     0.000     0.000
   01/09/2020 00:00:00      0.000     0.000     0.000     0.000
  
  
  <<< Link 148 >>>
  ----------------------------------------------------------------
                             Flow  Velocity     Depth  Capacity/
  Date        Time            CFS    ft/sec      feet   Setting 
  ----------------------------------------------------------------
   01/08/2020 14:00:00      0.000     0.000     7.500     0.500
   01/08/2020 14:15:00      0.000     0.000     7.500     0.500
   01/08/2020 14:30:00      0.000     0.000     7.500     0.500
   01/08/2020 14:45:00      0.000     0.000     7.500     0.500
   01/08/2020 15:00:00      0.000     0.000     7.500     0.500
   01/08/2020 15:15:00      0.000     0.000     7.500     0.500
   01/08/2020 15:30:00      0.000     0.000     7.500     0.500
   01/08/2020 15:45:00      0.000     0.000     7.500     0.500
   01/08/2020 16:00:00      0.000     0.000     7.500     0.500
   01/08/2020 16:15:00      0.000     0.000     7.500     0.500
   01/08/2020 16:30:00      0.000     0.000     7.500     0.500
   01/08/2020 16:45:00      0.000     0.000     7.500     0.500
   01/08/2020 17:00:00      0.000     0.000     7.500     0.500
   01/08/2020 17:15:00      0.000     0.000     7.500     0.500
   01/08/2020 17:30:00      0.000     0.000     7.500     0.500
   01/08/2020 17:45:00      0.000     0.000     7.500     0.500
   01/08/2020 18:00:00      0.000     0.000     7.500     0.500
   01/08/2020 18:15:00      0.000     0.000     7.500     0.500
   01/08/2020 18:30:00      0.000     0.000     7.500     0.500
   01/08/2020 18:45:00      0.000     0.000     7.500     0.500
   01/08/2020 19:00:00      0.000     0.000     7.500     0.500
   01/08/2020 19:15:00      0.000     0.000     7.500     0.500
   01/08/2020 19:30:00      0.000     0.000     7.500     0.500
   01/08/2020 19:45:00      0.000     0.000     7.500     0.500
   01/08/2020 20:00:00      0.000     0.000     7.500     0.500
   01/08/2020 20:15:00      0.000     0.000     7.500     0.500
   01/08/2020 20:30:00      0.000     0.000     7.500     0.500
   01/08/2020 20:45:00      0.000     0.000     7.500     0.500
   01/08/2020 21:00:00      0.000     0.000     7.500     0.500
   01/08/2020 21:15:00      0.000     0.000     7.500     0.500
   01/08/2020 21:30:00      0.000     0.000     7.500     0.500
   01/08/2020 21:45:00      0.000     0.000     7.500     0.500
   01/08/2020 22:00:00      0.000     0.000     7.500     0.500
   01/08/2020 22:15:00      0.000     0.000     7.500     0.500
   01/08/2020 22:30:00      0.000     0.000     7.500     0.500
   01/08/2020 22:45:00      0.000     0.000     7.500     0.500
   01/08/2020 23:00:00      0.000     0.000     7.500     0.500
   01/08/2020 23:15:00      0.000     0.000     7.500     0.500
   01/08/2020 23:30:00      0.000     0.000     7.500     0.500
   01/08/2020 23:45:00      0.000     0.000     7.500     0.500
   01/09/2020 00:00:00      0.000     0.000     7.500     0.500
  
  
  <<< Link 149 >>>
  ----------------------------------------------------------------
                             Flow  Velocity     Depth  Capacity/
  Date        Time            CFS    ft/sec      feet   Setting 
  ----------------------------------------------------------------
   01/08/2020 14:00:00    -16.821    -0.038    17.224     0.791
   01/08/2020 14:15:00    283.083     0.643    17.070     0.785
   01/08/2020 14:30:00     31.118     0.069    17.420     0.799
   01/08/2020 14:45:00    764.478     1.706    17.401     0.798
   01/08/2020 15:00:00   -311.860    -0.695    17.429     0.800
   01/08/2020 15:15:00    -56.487    -0.128    17.128     0.787
   01/08/2020 15:30:00    -12.102    -0.027    17.230     0.791
   01/08/2020 15:45:00     27.096     0.061    17.249     0.792
   01/08/2020 16:00:00      5.369     0.012    17.258     0.792
   01/08/2020 16:15:00   -457.711    -1.011    17.607     0.807
   01/08/2020 16:30:00    -14.665    -0.033    16.972     0.781
   01/08/2020 16:45:00     61.288     0.139    17.122     0.787
   01/08/2020 17:00:00      2.812     0.006    17.204     0.790
   01/08/2020 17:15:00   -200.411    -0.460    16.864     0.776
   01/08/2020 17:30:00    152.513     0.345    17.119     0.787
   01/08/2020 17:45:00    131.604     0.292    17.494     0.802
   01/08/2020 18:00:00   -212.781    -0.477    17.326     0.795
   01/08/2020 18:15:00    -10.787    -0.024    17.452     0.800
   01/08/2020 18:30:00   -139.302    -0.313    17.245     0.792
   01/08/2020 18:45:00   -241.949    -0.545    17.213     0.791
   01/08/2020 19:00:00     53.236     0.120    17.186     0.790
   01/08/2020 19:15:00      2.058     0.005    17.223     0.791
   01/08/2020 19:30:00      9.544     0.021    18.130     0.828
   01/08/2020 19:45:00   -239.712    -0.540    17.237     0.792
   01/08/2020 20:00:00   -223.486    -0.495    17.540     0.804
   01/08/2020 20:15:00     39.984     0.090    17.248     0.792
   01/08/2020 20:30:00      6.610     0.015    17.229     0.791
   01/08/2020 20:45:00    -42.918    -0.096    17.365     0.797
   01/08/2020 21:00:00    -27.746    -0.063    17.189     0.790
   01/08/2020 21:15:00    421.315     0.928    17.659     0.809
   01/08/2020 21:30:00    -81.316    -0.180    17.569     0.805
   01/08/2020 21:45:00   -105.808    -0.240    17.088     0.785
   01/08/2020 22:00:00      4.524     0.010    17.192     0.790
   01/08/2020 22:15:00     35.749     0.080    17.299     0.794
   01/08/2020 22:30:00    268.560     0.606    17.205     0.790
   01/08/2020 22:45:00     21.898     0.050    17.147     0.788
   01/08/2020 23:00:00     29.885     0.067    17.212     0.791
   01/08/2020 23:15:00      3.073     0.007    17.236     0.792
   01/08/2020 23:30:00    -17.208    -0.039    17.282     0.793
   01/08/2020 23:45:00    -21.678    -0.049    17.268     0.793
   01/09/2020 00:00:00     -6.568    -0.015    17.259     0.793
  

  Analysis begun on:  Wed Dec 29 11:47:32 2021
  Analysis ended on:  Wed Dec 29 11:48:36 2021
  Total elapsed time: 00:01:04