
  EPA STORM WATER MANAGEMENT MODEL - VERSION 5.1 (Build 5.1.015)
  --------------------------------------------------------------

  WARNING 04: minimum elevation drop used for Conduit 28
  WARNING 04: minimum elevation drop used for Conduit 39
  WARNING 04: minimum elevation drop used for Conduit 43
  WARNING 04: minimum elevation drop used for Conduit 48
  WARNING 04: minimum elevation drop used for Conduit 76
  WARNING 04: minimum elevation drop used for Conduit 78
  WARNING 04: minimum elevation drop used for Conduit 80
  WARNING 04: minimum elevation drop used for Conduit 85
  WARNING 08: elevation drop exceeds length for Conduit 92
  WARNING 04: minimum elevation drop used for Conduit 147
  WARNING 02: maximum depth increased for Node 1
  WARNING 02: maximum depth increased for Node 2
  WARNING 02: maximum depth increased for Node 70
  WARNING 02: maximum depth increased for Node 72
  WARNING 02: maximum depth increased for Node 91
  
  *********************************************************
  NOTE: The summary statistics displayed in this report are
  based on results found at every computational time step,  
  not just on results from each reporting time step.
  *********************************************************
  
  ****************
  Analysis Options
  ****************
  Flow Units ............... CFS
  Process Models:
    Rainfall/Runoff ........ NO
    RDII ................... NO
    Snowmelt ............... NO
    Groundwater ............ NO
    Flow Routing ........... YES
    Ponding Allowed ........ YES
    Water Quality .......... NO
  Flow Routing Method ...... DYNWAVE
  Surcharge Method ......... EXTRAN
  Starting Date ............ 01/01/2020 00:00:00
  Ending Date .............. 01/09/2020 00:00:00
  Antecedent Dry Days ...... 0.0
  Report Time Step ......... 00:15:00
  Routing Time Step ........ 30.00 sec
  Variable Time Step ....... YES
  Maximum Trials ........... 10
  Number of Threads ........ 1
  Head Tolerance ........... 0.005000 ft
  
  
  **************************        Volume        Volume
  Flow Routing Continuity        acre-feet      10^6 gal
  **************************     ---------     ---------
  Dry Weather Inflow .......         0.000         0.000
  Wet Weather Inflow .......         0.000         0.000
  Groundwater Inflow .......         0.000         0.000
  RDII Inflow ..............         0.000         0.000
  External Inflow ..........   1368791.487    446041.155
  External Outflow .........    144814.755     47190.052
  Flooding Loss ............   1222818.577    398473.702
  Evaporation Loss .........         0.000         0.000
  Exfiltration Loss ........         0.000         0.000
  Initial Stored Volume ....        -0.306        -0.100
  Final Stored Volume ......      1048.527       341.678
  Continuity Error (%) .....         0.008
  
  
  *************************
  Highest Continuity Errors
  *************************
  Node 3 (16.06%)
  Node 59 (5.75%)
  Node 110 (-2.96%)
  Node 116 (2.39%)
  Node 117 (1.93%)
  
  
  ***************************
  Time-Step Critical Elements
  ***************************
  Link 123 (674.99%)
  Link 88 (417.48%)
  Link 94 (240.23%)
  Link 15 (194.56%)
  Link 103 (87.20%)
  
  
  ********************************
  Highest Flow Instability Indexes
  ********************************
  Link 56 (127)
  Link 20 (127)
  Link 19 (124)
  Link 66 (119)
  Link 21 (118)
  
  
  *************************
  Routing Time Step Summary
  *************************
  Minimum Time Step           :     0.04 sec
  Average Time Step           :     2.83 sec
  Maximum Time Step           :    30.00 sec
  Percent in Steady State     :    94.79
  Average Iterations per Step :     7.72
  Percent Not Converging      :   585.39
  Time Step Frequencies       :
     30.000 -  3.817 sec      :    21.10 %
      3.817 -  0.486 sec      :    78.84 %
      0.486 -  0.062 sec      :     0.06 %
      0.062 -  0.008 sec      :     0.01 %
      0.008 -  0.001 sec      :     0.00 %
  
  
  ******************
  Node Depth Summary
  ******************
  
  ---------------------------------------------------------------------------------
                                 Average  Maximum  Maximum  Time of Max    Reported
                                   Depth    Depth      HGL   Occurrence   Max Depth
  Node                 Type         Feet     Feet     Feet  days hr:min        Feet
  ---------------------------------------------------------------------------------
  1                    JUNCTION     0.00     0.00    10.01     7  14:00        0.00
  2                    JUNCTION     0.00     0.00     8.99     7  14:00        0.00
  3                    JUNCTION    11.83    11.86     8.64     7  14:00       11.86
  4                    JUNCTION    10.17    10.20     8.64     7  14:00       10.20
  5                    JUNCTION     0.02     0.05     8.64     7  14:01        0.05
  6                    JUNCTION     4.90     5.82     7.49     7  18:22        5.81
  7                    JUNCTION     8.83     9.75     7.49     7  18:22        9.74
  8                    JUNCTION    54.56    55.52     7.53     7  18:20       55.47
  9                    JUNCTION    54.53    55.47     7.51     7  18:21       55.45
  10                   JUNCTION    82.44    83.38     7.51     7  18:23       83.34
  11                   JUNCTION    92.37    93.27     7.46     7  18:47       93.26
  12                   JUNCTION    24.99    25.89     7.46     7  18:30       25.86
  13                   JUNCTION    18.36    19.22     7.42     7  18:29       19.21
  14                   JUNCTION    18.24    19.09     7.40     7  18:22       19.08
  15                   JUNCTION    31.03    31.91     7.43     7  18:22       31.87
  16                   JUNCTION    14.47    15.30     7.38     7  18:23       15.30
  19                   JUNCTION    25.79    26.35     7.55     7  18:41       26.30
  20                   JUNCTION    30.79    31.37     7.57     7  18:38       31.29
  21                   JUNCTION    27.99    28.59     7.59     7  18:47       28.50
  22                   JUNCTION    19.49    20.06     7.56     7  18:36       20.00
  23                   JUNCTION    12.19    12.72     7.52     7  18:38       12.69
  24                   JUNCTION     0.49     1.02     7.52     7  18:39        1.01
  25                   JUNCTION     0.42     1.20     7.50     7  18:21        1.18
  26                   JUNCTION    18.17    19.09     7.49     7  18:22       19.08
  27                   JUNCTION    18.47    19.40     7.50     7  18:20       19.39
  28                   JUNCTION    14.57    15.50     7.50     7  18:20       15.49
  29                   JUNCTION    14.57    15.50     7.50     7  18:19       15.50
  30                   JUNCTION    28.27    29.19     7.49     7  18:15       29.19
  31                   JUNCTION    28.37    29.30     7.50     7  18:17       29.29
  32                   JUNCTION    54.17    55.14     7.54     7  18:19       55.11
  33                   JUNCTION    51.07    52.04     7.54     7  18:15       52.01
  34                   JUNCTION    18.27    19.20     7.50     7  18:14       19.20
  35                   JUNCTION     0.00     0.00    21.17     0  00:00        0.00
  36                   JUNCTION     1.69     2.22     7.52     7  18:38        2.19
  37                   JUNCTION     1.59     2.12     7.52     7  18:39        2.10
  38                   JUNCTION    19.99    20.52     7.52     7  18:40       20.50
  39                   JUNCTION    20.29    20.82     7.52     7  18:40       20.80
  40                   JUNCTION    41.19    41.76     7.56     7  18:44       41.70
  41                   JUNCTION    41.19    41.75     7.55     7  18:41       41.70
  42                   JUNCTION    68.49    69.05     7.55     7  18:39       69.01
  43                   JUNCTION    71.89    72.48     7.58     7  18:46       72.42
  44                   JUNCTION    33.19    33.74     7.54     7  18:46       33.74
  45                   JUNCTION    33.19    33.74     7.54     7  18:45       33.74
  46                   JUNCTION    23.39    23.97     7.57     7  18:47       23.94
  47                   JUNCTION    23.49    24.07     7.57     7  18:47       24.04
  48                   JUNCTION    34.79    35.38     7.58     7  18:47       35.34
  49                   JUNCTION    21.29    21.88     7.58     7  18:46       21.84
  50                   JUNCTION    21.29    21.90     7.60     7  18:46       21.84
  51                   JUNCTION    17.49    18.06     7.56     7  18:47       18.04
  52                   JUNCTION     3.99     4.56     7.56     7  18:47        4.54
  53                   JUNCTION    27.17    27.29     5.19     7  21:20       27.20
  54                   JUNCTION     5.97     5.98     5.08     7  22:57        5.98
  55                   JUNCTION     5.07     5.08     5.08     7  22:58        5.08
  56                   JUNCTION    18.77    18.87     5.17     7  22:43       18.79
  57                   JUNCTION    18.27    18.38     5.18     7  22:43       18.33
  58                   JUNCTION    25.57    25.79     5.29     7  23:58       25.68
  59                   JUNCTION    25.67    25.91     5.31     7  23:58       25.73
  60                   JUNCTION     0.00     0.00     7.19     7  14:00        0.00
  61                   JUNCTION     0.00     0.00    12.80     0  00:00        0.00
  62                   JUNCTION     0.00     0.00    15.00     0  00:00        0.00
  63                   JUNCTION     0.00     0.00    22.00     0  00:00        0.00
  64                   JUNCTION     0.00     0.00    18.00     0  00:00        0.00
  65                   JUNCTION     0.00     0.00    11.00     0  00:00        0.00
  66                   JUNCTION     9.57    10.50     7.50     7  18:14       10.50
  67                   JUNCTION    12.27    13.20     7.50     7  18:15       13.20
  70                   JUNCTION    32.57    33.51     7.51     7  18:17       33.50
  71                   JUNCTION    17.76    18.70     7.51     7  18:16       18.69
  72                   JUNCTION    21.37    21.88     5.58     7  21:17       21.45
  73                   JUNCTION    22.07    22.49     5.49     7  21:18       22.18
  74                   JUNCTION    10.07    10.12     5.12     7  22:40       10.09
  75                   JUNCTION    16.97    17.07     5.17     7  21:17       16.98
  76                   JUNCTION     8.07     8.10     5.10     7  22:41        8.09
  77                   JUNCTION    11.32    11.36     5.11     7  22:42       11.33
  78                   JUNCTION    24.77    24.89     5.19     7  22:52       24.84
  79                   JUNCTION    24.77    24.90     5.20     7  22:45       24.84
  80                   JUNCTION    17.67    17.75     5.15     7  21:18       17.70
  81                   JUNCTION    17.67    17.75     5.15     7  21:18       17.70
  82                   JUNCTION    10.07    10.09     5.09     7  22:46       10.09
  83                   JUNCTION    23.09    23.64     7.54     7  18:41       23.60
  84                   JUNCTION    23.09    23.66     7.56     7  18:45       23.60
  85                   JUNCTION    50.69    51.26     7.56     7  18:42       51.21
  86                   JUNCTION    58.29    58.85     7.55     7  18:44       58.81
  87                   JUNCTION    46.99    47.52     7.52     7  18:39       47.51
  88                   JUNCTION    43.99    44.52     7.52     7  18:39       44.51
  89                   JUNCTION    43.99    44.55     7.55     7  18:44       44.51
  90                   JUNCTION    29.99    30.58     7.58     7  18:42       30.51
  91                   JUNCTION    11.79    12.35     7.55     7  18:41       12.31
  92                   JUNCTION     7.79     8.34     7.54     7  18:42        8.30
  18                   JUNCTION    21.37    21.47     5.17     7  21:21       21.42
  100                  JUNCTION    33.69    33.79     5.17     7  23:58       33.76
  102                  JUNCTION    31.55    35.00     9.36     7  14:25       32.41
  103                  JUNCTION    28.29    35.00    12.62     7  14:25       29.13
  104                  JUNCTION    28.28    35.00    12.63     7  14:25       29.12
  105                  JUNCTION    26.35    33.00    12.56     7  21:18       27.18
  106                  JUNCTION    18.03    33.00    20.88     7  21:18       18.92
  107                  JUNCTION    20.80    32.75    17.86     7  22:40       21.80
  108                  JUNCTION    12.71    16.66     9.86     7  22:40       13.86
  109                  JUNCTION    26.77    41.00    20.12     7  14:19       27.64
  110                  JUNCTION    26.78    36.00    15.09     7  14:19       27.83
  111                  JUNCTION    26.85    41.00    20.02     7  14:19       27.40
  112                  JUNCTION    26.86    41.00    20.00     7  14:19       27.44
  113                  JUNCTION    86.67   101.00    20.20     7  14:19       87.17
  114                  JUNCTION    89.06   105.00    21.82     7  14:19       89.51
  115                  JUNCTION    77.63    92.00    20.25     7  14:19       78.06
  116                  JUNCTION    77.75    92.00    20.13     7  14:19       78.17
  117                  JUNCTION   104.39   117.87    19.37     7  14:19      104.84
  118                  JUNCTION    28.89    31.76     8.78     7  21:18       29.91
  119                  JUNCTION    26.06    27.44     7.29     7  22:44       27.26
  120                  JUNCTION    23.33    24.68     7.26     7  22:44       24.15
  121                  JUNCTION     9.10    10.53     7.34     7  22:43       10.09
  122                  JUNCTION     9.34    10.57     7.14     7  22:45       10.47
  123                  JUNCTION    16.55    17.61     6.97     7  23:09       17.37
  124                  JUNCTION    12.41    13.37     6.87     7  22:47       13.19
  125                  JUNCTION    13.11    14.16     6.96     7  22:48       13.87
  126                  JUNCTION    25.29    27.07     7.69     7  22:48       26.21
  127                  JUNCTION    17.12    19.16     7.95     7  22:48       18.14
  128                  JUNCTION    17.61    19.58     7.88     7  22:48       18.65
  129                  JUNCTION    20.23    22.17     7.85     7  22:49       21.33
  130                  JUNCTION    11.60    13.59     7.90     7  22:49       12.69
  131                  JUNCTION     0.00     0.00    31.65     0  00:00        0.00
  132                  JUNCTION     0.00     0.00    31.36     0  00:00        0.00
  133                  JUNCTION     0.00     0.00    40.24     0  00:00        0.00
  134                  JUNCTION     0.00     0.00    44.72     0  00:00        0.00
  135                  JUNCTION     0.00     0.00    44.62     0  00:00        0.00
  136                  JUNCTION     0.00     0.00    44.35     0  00:00        0.00
  137                  JUNCTION     0.00     0.00    34.51     0  00:00        0.00
  138                  JUNCTION     0.00     0.00    52.23     0  00:00        0.00
  139                  JUNCTION     0.00     0.00    49.93     0  00:00        0.00
  140                  JUNCTION     0.00     0.00    45.20     0  00:00        0.00
  141                  JUNCTION     0.00     0.00    49.13     0  00:00        0.00
  142                  JUNCTION     0.00     0.00    40.05     0  00:00        0.00
  143                  JUNCTION     0.00     0.00    39.90     0  00:00        0.00
  148                  JUNCTION    31.33    31.56     5.30     7  21:18       31.36
  68                   OUTFALL      0.00     0.00     6.50     0  00:00        0.00
  69                   OUTFALL      0.07     0.17     5.17     7  16:24        0.09
  93                   OUTFALL      0.07     0.07    13.96     8  00:00        0.07
  94                   OUTFALL      0.00     0.00    10.51     0  00:00        0.00
  95                   OUTFALL      0.07     0.07    12.77     8  00:00        0.07
  96                   OUTFALL      0.00     0.00    31.60     0  00:00        0.00
  97                   OUTFALL      0.00     0.00    17.55     0  00:00        0.00
  98                   OUTFALL      0.00     0.00    11.00     0  00:00        0.00
  99                   OUTFALL      0.42     1.14     7.24     7  18:23        1.14
  101                  OUTFALL      0.00     0.00    11.89     0  00:00        0.00
  144                  OUTFALL      0.00     0.00    32.22     0  00:00        0.00
  145                  OUTFALL      0.00     0.00     8.00     0  00:00        0.00
  146                  OUTFALL      0.00     0.00    39.90     0  00:00        0.00
  147                  OUTFALL      0.00     0.00    15.00     0  00:00        0.00
  
  
  *******************
  Node Inflow Summary
  *******************
  
  -------------------------------------------------------------------------------------------------
                                  Maximum  Maximum                  Lateral       Total        Flow
                                  Lateral    Total  Time of Max      Inflow      Inflow     Balance
                                   Inflow   Inflow   Occurrence      Volume      Volume       Error
  Node                 Type           CFS      CFS  days hr:min    10^6 gal    10^6 gal     Percent
  -------------------------------------------------------------------------------------------------
  1                    JUNCTION      0.00     0.00     0  00:00           0       0.109       0.011
  2                    JUNCTION      0.00     0.00     0  00:00           0        12.7       0.038
  3                    JUNCTION      0.00     0.67     7  15:46           0        85.5      19.127
  4                    JUNCTION      0.00     1.67     7  14:05           0         109       1.091
  5                    JUNCTION      0.00     0.79     7  14:15           0        87.4       0.348
  6                    JUNCTION      0.00   112.81     7  19:32           0    1.95e+03       0.041
  7                    JUNCTION      0.00   118.69     7  19:32           0    1.87e+03       0.007
  8                    JUNCTION    244.30   244.30     7  18:00          16    2.27e+03       0.138
  9                    JUNCTION    175.68   348.85     7  18:23        8.93    2.49e+03       0.112
  10                   JUNCTION      8.78   352.99     7  18:23       0.227    3.06e+03       0.138
  11                   JUNCTION      0.00   352.87     7  18:23           0    4.28e+03       0.110
  12                   JUNCTION      0.00   352.98     7  18:23           0    4.26e+03       0.044
  13                   JUNCTION      0.00   353.27     7  18:23           0     4.2e+03       0.033
  14                   JUNCTION      0.00   353.14     7  18:24           0     4.2e+03       0.082
  15                   JUNCTION      0.00   352.96     7  18:23           0     4.2e+03       0.079
  16                   JUNCTION      0.00   353.33     7  18:23           0    1.04e+05      -0.002
  19                   JUNCTION      0.00     1.25     7  15:33           0    1.79e+04       0.024
  20                   JUNCTION      0.00    11.78     7  16:11           0    1.16e+03       0.425
  21                   JUNCTION      0.00    11.36     7  21:17           0    1.16e+03       0.298
  22                   JUNCTION      0.00     4.95     7  15:48           0    1.15e+03       0.300
  23                   JUNCTION      0.00     9.86     7  18:16           0    1.18e+03       0.116
  24                   JUNCTION      0.00    48.58     7  18:14           0    2.22e+03      -0.014
  25                   JUNCTION      0.00    49.55     7  18:04           0    1.21e+03       0.027
  26                   JUNCTION      0.00   106.66     7  17:02           0    2.38e+03       0.183
  27                   JUNCTION      0.00    96.63     7  17:02           0    1.52e+03       0.165
  28                   JUNCTION      0.00    92.22     7  17:02           0    1.54e+03       0.164
  29                   JUNCTION      0.00    87.75     7  17:02           0    2.15e+03       0.114
  30                   JUNCTION      0.00    58.74     7  17:04           0    2.07e+03       0.358
  31                   JUNCTION      0.00    58.02     7  15:57           0    7.09e+03       0.088
  32                   JUNCTION      0.00    13.75     7  22:50           0    6.72e+03       0.044
  33                   JUNCTION      0.00    13.75     7  22:50           0    6.72e+03       0.044
  34                   JUNCTION      0.00    12.28     7  22:54           0    1.06e+04       0.027
  35                   JUNCTION      0.00     0.00     0  00:00           0           0       0.000 gal
  36                   JUNCTION      0.00    16.18     7  18:11           0         123       0.381
  37                   JUNCTION      0.00    25.23     7  17:50           0         229       0.163
  38                   JUNCTION      0.00    41.28     7  18:09           0    2.26e+03       0.269
  39                   JUNCTION      0.00    37.52     7  19:19           0    2.15e+03       0.145
  40                   JUNCTION      0.00    38.12     7  20:03           0    2.26e+03       0.530
  41                   JUNCTION      0.00    26.80     7  21:13           0    1.12e+03       0.289
  42                   JUNCTION      0.00    20.51     7  19:34           0    1.11e+03       0.279
  43                   JUNCTION      0.00    20.50     7  19:34           0    1.18e+03       0.213
  44                   JUNCTION      0.00    19.54     7  22:42           0    1.18e+03       0.243
  45                   JUNCTION      0.00    18.28     7  21:12           0    1.18e+03       0.372
  46                   JUNCTION      0.00    15.17     7  15:49           0    1.17e+03       0.297
  47                   JUNCTION      0.00    14.60     7  15:49           0    1.13e+03       0.172
  48                   JUNCTION      0.00    14.10     7  15:49           0    1.13e+03       0.183
  49                   JUNCTION      0.00    16.76     7  15:49           0    1.13e+03       0.267
  50                   JUNCTION      0.00    16.27     7  15:48           0    1.11e+03       0.276
  51                   JUNCTION      0.00    16.23     7  21:11           0    6.01e+03       0.037
  52                   JUNCTION      0.00    18.20     7  21:11           0    2.07e+04       0.002
  53                   JUNCTION      0.00   220.91     7  21:17           0    1.58e+03       0.141
  54                   JUNCTION      0.00    13.09     7  21:21           0    1.59e+03       0.082
  55                   JUNCTION      0.00    11.50     7  22:55           0    1.59e+03       0.105
  56                   JUNCTION      0.00     9.48     7  23:59           0    2.71e+03       0.272
  57                   JUNCTION      0.00    12.77     7  22:41           0         998       0.438
  58                   JUNCTION      0.00    12.42     7  23:31           0         755       0.537
  59                   JUNCTION      0.00    12.51     7  15:22           0        83.4       6.097
  60                   JUNCTION      0.00     0.00     0  00:00           0        5.89      -0.052
  61                   JUNCTION      0.00     0.00     0  00:00           0           0       0.000 gal
  62                   JUNCTION      0.00     0.00     0  00:00           0           0       0.000 gal
  63                   JUNCTION      0.00     0.00     0  00:00           0           0       0.000 gal
  64                   JUNCTION      0.00     0.00     0  00:00           0           0       0.000 gal
  65                   JUNCTION      0.00     0.00     0  00:00           0           0       0.000 gal
  66                   JUNCTION      0.00    24.46     7  14:14           0         143       1.647
  67                   JUNCTION      0.00    51.80     7  17:02           0    1.38e+03       0.214
  70                   JUNCTION      0.00    43.14     7  14:12           0    6.65e+03       0.073
  71                   JUNCTION      0.00    31.67     7  14:11           0         717       0.361
  72                   JUNCTION      0.00  1120.25     7  21:18           0    1.59e+03       0.249
  73                   JUNCTION      0.00  1447.89     7  21:17           0    2.91e+04       0.013
  74                   JUNCTION      0.00    63.44     7  21:18           0    7.72e+04       0.001
  75                   JUNCTION      0.00   132.21     7  21:19           0    3.92e+04       0.005
  76                   JUNCTION      0.00    34.90     7  21:20           0     8.8e+04       0.001
  77                   JUNCTION      0.00    32.12     7  21:20           0    7.58e+04       0.001
  78                   JUNCTION      0.00    12.31     7  21:16           0    2.92e+03       0.138
  79                   JUNCTION      0.00    12.31     7  16:11           0    2.42e+03       0.134
  80                   JUNCTION      0.00    16.73     7  21:18           0    1.38e+03       0.184
  81                   JUNCTION      0.00    12.71     7  21:18           0    1.53e+03       0.134
  82                   JUNCTION      0.00    11.18     7  22:42           0    1.06e+04       0.013
  83                   JUNCTION      0.00    28.65     7  19:30           0    1.24e+03       0.777
  84                   JUNCTION      0.00    27.82     7  19:19           0    1.23e+03       0.329
  85                   JUNCTION      0.00    27.76     7  19:19           0    1.13e+03       0.144
  86                   JUNCTION      0.00    27.77     7  19:19           0    1.12e+03       0.147
  87                   JUNCTION      0.00    39.74     7  22:20           0    1.12e+03       0.569
  88                   JUNCTION      0.00    24.73     7  22:23           0    1.21e+03       0.422
  89                   JUNCTION      0.00    20.97     7  19:18           0    3.52e+03       0.088
  90                   JUNCTION      0.00    20.67     7  19:18           0    1.18e+04       0.028
  91                   JUNCTION      0.00    20.73     7  16:51           0    3.34e+04       0.002
  92                   JUNCTION      0.00    15.30     7  17:20           0    6.48e+03       0.012
  18                   JUNCTION      0.00    16.64     7  21:18           0    1.58e+03       0.068
  100                  JUNCTION      0.00    16.54     7  21:18           0    1.58e+03       0.127
  102                  JUNCTION      0.00  1051.53     7  21:18           0    3.73e+03       0.150
  103                  JUNCTION      0.00  1004.35     7  22:45           0    3.75e+03       0.312
  104                  JUNCTION      0.00  1223.46     7  22:45           0     3.8e+03       0.163
  105                  JUNCTION      0.00  1415.87     7  21:18           0         426       1.720
  106                  JUNCTION      0.00  2982.86     7  21:18           0         498       1.447
  107                  JUNCTION      0.00  3011.27     7  21:18           0         573       1.184
  108                  JUNCTION      0.00  8265.46     7  22:39           0         586       0.796
  109                  JUNCTION      0.00 44152.31     7  14:19           0         612       0.921
  110                  JUNCTION      0.00 16447.28     7  22:40           0         611      -2.873
  111                  JUNCTION      0.00 36716.35     7  14:19           0         555      -0.884
  112                  JUNCTION      0.00  9161.96     7  14:20           0         496       1.739
  113                  JUNCTION      0.00  3218.26     7  22:39           0         491       1.240
  114                  JUNCTION      0.00  2522.53     7  21:17           0         494       0.714
  115                  JUNCTION      0.00  1882.86     7  22:40           0         504       1.617
  116                  JUNCTION      0.00  1011.38     7  22:40           0         516       2.446
  117                  JUNCTION      0.00  1080.68     7  22:40           0         522       1.969
  118                  JUNCTION      0.00  1090.98     7  22:40           0         529       1.382
  119                  JUNCTION      0.00  1095.07     7  22:40           0         554       0.898
  120                  JUNCTION      0.00   971.02     7  21:22           0         557       0.730
  121                  JUNCTION      0.00   924.15     7  22:52           0         539       0.127
  122                  JUNCTION      0.00   753.32     7  22:41           0         538       0.576
  123                  JUNCTION      0.00   516.03     7  22:52           0         535       1.077
  124                  JUNCTION      0.00   457.58     7  22:52           0         529       0.447
  125                  JUNCTION      0.00   415.76     7  23:00           0         519       1.155
  126                  JUNCTION      0.00   175.56     7  22:51           0    1.52e+03       0.482
  127                  JUNCTION      0.00   160.75     7  21:49           0    1.21e+03       0.255
  128                  JUNCTION      0.00   178.92     7  22:47           0     1.6e+03       0.119
  129                  JUNCTION      0.00   178.65     7  22:47           0    1.58e+03       0.059
  130                  JUNCTION      0.00   178.54     7  22:47           0    1.57e+03       0.057
  131                  JUNCTION      0.00     0.00     0  00:00           0           0       0.000 gal
  132                  JUNCTION      0.00     0.00     0  00:00           0           0       0.000 gal
  133                  JUNCTION      0.00     0.00     0  00:00           0           0       0.000 gal
  134                  JUNCTION      0.00     0.00     0  00:00           0           0       0.000 gal
  135                  JUNCTION      0.00     0.00     0  00:00           0           0       0.000 gal
  136                  JUNCTION      0.00     0.00     0  00:00           0           0       0.000 gal
  137                  JUNCTION      0.00     0.00     0  00:00           0           0       0.000 gal
  138                  JUNCTION      0.00     0.00     0  00:00           0           0       0.000 gal
  139                  JUNCTION      0.00     0.00     0  00:00           0           0       0.000 gal
  140                  JUNCTION      0.00     0.00     0  00:00           0           0       0.000 gal
  141                  JUNCTION      0.00     0.00     0  00:00           0           0       0.000 gal
  142                  JUNCTION      0.00     0.00     0  00:00           0           0       0.000 gal
  143                  JUNCTION      0.00     0.00     0  00:00           0           0       0.000 gal
  148                  JUNCTION      0.00    69.73     7  21:17           0    2.93e+04       0.006
  68                   OUTFALL       0.00     0.00     0  00:00           0    9.15e+03       0.000
  69                   OUTFALL       0.00    15.61     7  16:24           0     1.5e+04       0.000
  93                   OUTFALL       0.00     3.84     8  00:00           0    7.04e+03       0.000
  94                   OUTFALL       0.00     0.00     0  00:00           0    3.05e+03       0.000
  95                   OUTFALL       0.00     7.14     8  00:00           0    6.45e+03       0.000
  96                   OUTFALL       0.00     0.00     0  00:00           0           0       0.000 gal
  97                   OUTFALL       0.00     0.00     0  00:00           0           0       0.000 gal
  98                   OUTFALL       0.00     0.00     0  00:00           0         975       0.000
  99                   OUTFALL       0.00   352.82     7  18:23           0    3.79e+03       0.000
  101                  OUTFALL       0.00     0.00     0  00:00           0    1.34e+03       0.000
  144                  OUTFALL       0.00     0.00     0  00:00           0           0       0.000 gal
  145                  OUTFALL       0.00     0.00     0  00:00           0         419       0.000
  146                  OUTFALL       0.00     0.00     0  00:00           0           0       0.000 gal
  147                  OUTFALL       0.00     0.00     0  00:00           0           0       0.000 gal
  
  
  **********************
  Node Surcharge Summary
  **********************
  
  Surcharging occurs when water rises above the top of the highest conduit.
  ---------------------------------------------------------------------
                                               Max. Height   Min. Depth
                                   Hours       Above Crown    Below Rim
  Node                 Type      Surcharged           Feet         Feet
  ---------------------------------------------------------------------
  8                    JUNCTION       10.00         29.522        4.478
  9                    JUNCTION       10.00         29.472        4.528
  10                   JUNCTION       10.00         63.878        1.622
  11                   JUNCTION       10.00         73.775        1.725
  12                   JUNCTION       10.00          6.387        4.113
  13                   JUNCTION       10.00          2.216        5.784
  14                   JUNCTION       10.00          2.091        5.909
  15                   JUNCTION       10.00         14.906        8.094
  19                   JUNCTION       10.00         11.053        3.647
  20                   JUNCTION       10.00         13.372        8.628
  21                   JUNCTION       10.00         10.589       11.411
  22                   JUNCTION       10.00          4.061       19.939
  32                   JUNCTION       10.00         39.042       24.858
  33                   JUNCTION       10.00         35.943       27.957
  39                   JUNCTION       10.00          1.522       19.178
  40                   JUNCTION       10.00         22.463       18.237
  41                   JUNCTION       10.00         24.748       18.252
  42                   JUNCTION       10.00         52.046       10.954
  43                   JUNCTION       10.00         55.478        7.522
  46                   JUNCTION       10.00          7.274       26.026
  47                   JUNCTION       10.00          7.372       25.928
  48                   JUNCTION       10.00         19.681       24.619
  49                   JUNCTION       10.00          5.685       28.115
  50                   JUNCTION       10.00          5.702       28.098
  51                   JUNCTION       10.00          1.861       11.939
  56                   JUNCTION       10.00          2.573       21.127
  57                   JUNCTION       10.00          2.628       21.622
  58                   JUNCTION       10.00          6.091       24.209
  59                   JUNCTION       10.00          6.213       24.087
  78                   JUNCTION       10.00          5.394        5.106
  79                   JUNCTION       10.00          5.404        5.096
  80                   JUNCTION       10.00          0.845       12.255
  81                   JUNCTION       10.00          0.848       12.252
  83                   JUNCTION       10.00          8.641       11.359
  84                   JUNCTION       10.00          7.059       11.341
  85                   JUNCTION       10.00         34.662       18.738
  86                   JUNCTION       10.00         42.247       11.153
  89                   JUNCTION       10.00         27.953        5.447
  90                   JUNCTION       10.00         13.981        9.419
  18                   JUNCTION       10.00          4.873       13.527
  100                  JUNCTION       10.00         17.194       16.206
  102                  JUNCTION       10.00         15.330        0.000
  103                  JUNCTION        9.89          8.000        0.000
  104                  JUNCTION        9.91          8.000        0.000
  105                  JUNCTION       10.00         13.330        0.000
  106                  JUNCTION        0.03         13.330        0.000
  107                  JUNCTION       10.00         13.083        2.247
  109                  JUNCTION        9.99         21.330        0.000
  111                  JUNCTION        0.03          5.000        0.000
  112                  JUNCTION        9.98         21.000        0.000
  113                  JUNCTION       10.00         81.000        0.000
  114                  JUNCTION       10.00         85.000        0.000
  115                  JUNCTION       10.00         52.000        0.000
  116                  JUNCTION       10.00         52.000        0.000
  117                  JUNCTION       10.00         97.871        2.129
  118                  JUNCTION       10.00         11.759       13.241
  126                  JUNCTION       10.00          9.174        7.926
  127                  JUNCTION        0.35          1.256        5.844
  128                  JUNCTION       10.00          4.577        2.423
  129                  JUNCTION       10.00          7.165        2.835
  148                  JUNCTION       10.00          7.258        8.442
  
  
  *********************
  Node Flooding Summary
  *********************
  
  Flooding refers to all water that overflows a node, whether it ponds or not.
  --------------------------------------------------------------------------
                                                             Total   Maximum
                                 Maximum   Time of Max       Flood    Ponded
                        Hours       Rate    Occurrence      Volume     Depth
  Node                 Flooded       CFS   days hr:min    10^6 gal      Feet
  --------------------------------------------------------------------------
  102                     0.05   1048.20      7  21:18       0.611     0.000
  103                     0.01    484.13      7  22:45       0.045     0.000
  104                     0.01    376.57      7  22:45       0.034     0.000
  105                     0.01    737.57      7  21:18       0.092     0.000
  106                     0.01   2271.23      7  21:18       0.089     0.000
  109                     0.01  30267.51      7  14:19       1.733     0.000
  111                     0.02  19904.07      7  14:19       6.356     0.000
  112                     0.01   5752.01      7  22:40       0.098     0.000
  113                     0.01    810.80      7  14:19       0.073     0.000
  114                     0.01   1356.38      7  22:40       0.053     0.000
  115                     0.01   1226.07      7  22:40       0.193     0.000
  116                     0.01    430.14      7  22:40       0.041     0.000
  
  
  ***********************
  Outfall Loading Summary
  ***********************
  
  -----------------------------------------------------------
                         Flow       Avg       Max       Total
                         Freq      Flow      Flow      Volume
  Outfall Node           Pcnt       CFS       CFS    10^6 gal
  -----------------------------------------------------------
  68                     0.00      0.00      0.00    9153.024
  69                   100.00      3.62     15.61   15012.649
  93                   100.00      3.76      3.84    7035.479
  94                     0.00      0.00      0.00    3050.024
  95                   100.00      6.72      7.14    6449.481
  96                     0.00      0.00      0.00       0.000
  97                     0.00      0.00      0.00       0.000
  98                     0.00      0.00      0.00     975.472
  99                   100.00     96.14    352.82    3791.328
  101                    0.00      0.00      0.00    1339.927
  144                    0.00      0.00      0.00       0.000
  145                    0.00      0.00      0.00     418.985
  146                    0.00      0.00      0.00       0.000
  147                    0.00      0.00      0.00       0.000
  -----------------------------------------------------------
  System                28.57    110.23    367.02   47226.369
  
  
  ********************
  Link Flow Summary
  ********************
  
  -----------------------------------------------------------------------------
                                 Maximum  Time of Max   Maximum    Max/    Max/
                                  |Flow|   Occurrence   |Veloc|    Full    Full
  Link                 Type          CFS  days hr:min    ft/sec    Flow   Depth
  -----------------------------------------------------------------------------
  1                    CONDUIT      0.00     0  00:00      0.00    0.00    0.00
  2                    CONDUIT      0.00     0  00:00      0.00    0.00    0.37
  3                    CONDUIT      1.67     7  14:05      0.00    0.00    0.79
  4                    CONDUIT      0.79     7  14:15      0.01    0.00    0.32
  5                    CONDUIT      0.61     7  14:01      0.02    0.00    0.18
  6                    CONDUIT    118.69     7  19:32      0.49    0.01    0.49
  7                    CONDUIT    121.49     7  19:30      0.38    0.01    0.74
  8                    CONDUIT    240.40     7  19:15      0.29    0.10    1.00
  9                    CONDUIT    347.95     7  18:50      0.97    0.03    1.00
  10                   CONDUIT    352.87     7  18:23      0.98    0.06    1.00
  11                   CONDUIT    352.98     7  18:23      0.98    0.02    1.00
  12                   CONDUIT    353.27     7  18:23      0.67    0.02    1.00
  13                   CONDUIT    353.14     7  18:24      0.74    0.27    1.00
  14                   CONDUIT    352.96     7  18:23      0.74    0.03    1.00
  15                   CONDUIT    353.33     7  18:23      0.78    0.01    0.95
  19                   CONDUIT      1.96     7  22:26      0.00    0.00    1.00
  20                   CONDUIT     11.36     7  22:29      0.01    0.00    1.00
  21                   CONDUIT      6.18     7  23:58      0.01    0.00    1.00
  22                   CONDUIT      6.14     7  16:23      0.01    0.00    0.92
  23                   CONDUIT      9.77     7  18:16      0.07    0.00    0.36
  24                   CONDUIT     46.07     7  18:10      1.21    0.02    0.08
  25                   CONDUIT     49.55     7  18:04      0.17    0.00    0.34
  26                   CONDUIT     96.63     7  17:02      0.23    0.04    0.82
  27                   CONDUIT     92.22     7  17:02      0.13    0.01    0.91
  28                   CONDUIT     87.75     7  17:02      0.11    0.21    0.86
  29                   CONDUIT     31.79     7  14:09      0.08    0.00    0.98
  30                   CONDUIT     57.47     7  15:57      0.04    0.01    0.97
  31                   CONDUIT     13.88     7  22:50      0.03    0.00    1.00
  32                   CONDUIT     13.75     7  22:50      0.03    0.00    1.00
  33                   CONDUIT     13.75     7  22:50      0.03    0.00    1.00
  34                   CONDUIT      0.00     0  00:00      0.00    0.00    0.07
  35                   CONDUIT     16.18     7  18:11      0.15    0.00    0.09
  36                   CONDUIT     25.23     7  17:50      0.08    0.00    0.38
  37                   CONDUIT     38.08     7  19:19      0.04    0.01    1.00
  38                   CONDUIT     37.52     7  19:19      0.09    0.00    1.00
  39                   CONDUIT     26.80     7  21:13      0.03    0.07    1.00
  40                   CONDUIT     20.69     7  19:34      0.05    0.00    1.00
  41                   CONDUIT     20.51     7  19:34      0.09    0.01    1.00
  42                   CONDUIT     20.50     7  19:34      0.09    0.00    1.00
  43                   CONDUIT     18.98     7  15:50      0.04    0.11    1.00
  44                   CONDUIT     15.22     7  15:49      0.04    0.00    1.00
  45                   CONDUIT     15.17     7  15:49      0.04    0.02    1.00
  46                   CONDUIT     14.60     7  15:49      0.04    0.00    1.00
  47                   CONDUIT     14.10     7  15:49      0.04    0.00    1.00
  48                   CONDUIT     16.76     7  15:49      0.02    0.05    1.00
  49                   CONDUIT     16.27     7  15:48      0.04    0.00    1.00
  50                   CONDUIT     18.20     7  21:11      0.06    0.00    0.64
  51                   CONDUIT     16.54     7  21:18      0.05    0.00    0.68
  52                   CONDUIT     12.01     7  14:13      0.03    0.00    0.22
  53                   CONDUIT      7.13     7  21:26      0.03    0.00    0.66
  54                   CONDUIT     12.77     7  22:41      0.01    0.00    1.00
  55                   CONDUIT     11.47     7  22:16      0.03    0.00    1.00
  56                   CONDUIT     12.51     7  15:22      0.01    0.00    1.00
  57                   CONDUIT      0.00     7  14:00      0.00    0.00    0.50
  58                   CONDUIT      0.00     0  00:00      0.00    0.00    0.00
  59                   CONDUIT      0.00     0  00:00      0.00    0.00    0.00
  60                   CONDUIT      0.00     0  00:00      0.00    0.00    0.00
  61                   CONDUIT      0.00     0  00:00      0.00    0.00    0.00
  62                   CONDUIT      0.00     0  00:00      0.00    0.00    0.00
  63                   CONDUIT      0.00     0  00:00      0.00    0.00    0.33
  64                   CONDUIT     30.33     7  14:23      0.04    0.00    0.71
  65                   CONDUIT     37.95     7  14:01      0.09    0.00    0.88
  67                   CONDUIT     43.28     7  14:03      0.09    0.00    0.90
  68                   CONDUIT     31.67     7  14:11      0.03    0.00    1.00
  69                   CONDUIT    210.33     7  21:17      0.27    0.00    0.74
  70                   CONDUIT   1255.88     7  21:17      0.63    0.04    1.00
  71                   CONDUIT     69.28     7  21:17      0.13    0.00    0.97
  72                   CONDUIT    122.73     7  21:17      0.34    0.01    1.00
  73                   CONDUIT     34.90     7  21:20      0.11    0.00    0.67
  74                   CONDUIT     36.77     7  21:18      0.09    0.00    0.85
  75                   CONDUIT      7.89     7  15:47      0.02    0.00    1.00
  76                   CONDUIT     12.31     7  21:16      0.01    0.03    1.00
  77                   CONDUIT     11.89     7  21:17      0.03    0.00    1.00
  78                   CONDUIT     13.41     7  21:18      0.02    0.04    1.00
  79                   CONDUIT     11.78     7  22:41      0.03    0.00    0.81
  80                   CONDUIT     28.65     7  19:30      0.02    0.05    1.00
  81                   CONDUIT     27.82     7  19:19      0.06    0.00    1.00
  82                   CONDUIT     27.76     7  19:19      0.06    0.00    1.00
  83                   CONDUIT     27.77     7  19:19      0.06    0.00    1.00
  84                   CONDUIT     39.74     7  22:20      0.02    0.00    0.92
  85                   CONDUIT     21.05     7  19:18      0.04    0.12    1.00
  86                   CONDUIT     20.97     7  19:18      0.04    0.00    1.00
  87                   CONDUIT     20.67     7  19:18      0.05    0.00    0.87
  88                   CONDUIT     20.73     7  16:51      0.14    0.00    0.26
  89                   CONDUIT      0.00     0  00:00      0.00    0.00    0.15
  90                   CONDUIT     41.28     7  18:09      0.10    0.00    0.53
  91                   CONDUIT     27.82     7  19:19      0.02    0.00    1.00
  92                   CONDUIT      0.00     0  00:00      0.00    0.00    0.50
  93                   CONDUIT    112.66     7  19:32      0.21    0.00    0.69
  94                   CONDUIT     51.80     7  17:02      0.29    0.01    1.00
  95                   CONDUIT      0.00     0  00:00      0.00    0.00    0.19
  96                   CONDUIT     15.61     7  16:24      0.13    0.00    0.14
  97                   CONDUIT      3.84     8  00:00      0.03    0.00    0.17
  98                   CONDUIT      0.00     0  00:00      0.00    0.00    0.17
  99                   CONDUIT      0.00     0  00:00      0.00    0.00    0.11
  100                  CONDUIT      7.14     8  00:00      0.05    0.00    0.14
  101                  CONDUIT      0.00     0  00:00      0.00    0.00    0.00
  102                  CONDUIT      0.00     0  00:00      0.00    0.00    0.31
  103                  CONDUIT    352.82     7  18:23      1.43    0.01    0.41
  104                  CONDUIT      0.00     0  00:00      0.00    0.00    0.38
  17                   CONDUIT     16.64     7  21:18      0.04    0.00    1.00
  18                   CONDUIT     15.76     7  21:18      0.04    0.00    1.00
  66                   CONDUIT   1051.53     7  21:18      1.10    0.09    1.00
  105                  CONDUIT   1004.35     7  22:45      0.58    0.44    1.00
  106                  CONDUIT   1223.46     7  22:45      1.28    0.07    1.00
  107                  CONDUIT   1415.87     7  21:18      1.48    0.07    1.00
  108                  CONDUIT   2982.86     7  21:18      3.12    0.18    1.00
  109                  CONDUIT   3011.27     7  21:18      3.55    0.13    0.92
  110                  CONDUIT   8265.46     7  22:39      9.93    0.22    0.92
  111                  CONDUIT  43387.28     7  14:19     45.32   12.24    1.00
  112                  CONDUIT  36716.35     7  14:19     25.93    4.19    1.00
  113                  CONDUIT   8920.47     7  14:20     14.20    4.80    1.00
  114                  CONDUIT   3218.26     7  22:39      5.12    0.12    1.00
  115                  CONDUIT   2522.53     7  21:17      4.01    0.35    1.00
  116                  CONDUIT   1882.86     7  22:40      3.00    0.08    1.00
  117                  CONDUIT   1011.38     7  22:40      0.45    0.09    1.00
  118                  CONDUIT   1080.68     7  22:40      1.72    0.06    1.00
  119                  CONDUIT   1090.98     7  22:40      1.74    0.05    1.00
  120                  CONDUIT   1095.07     7  22:40      1.74    0.12    1.00
  121                  CONDUIT    971.02     7  21:22      0.64    0.01    0.65
  122                  CONDUIT    737.30     7  22:53      1.49    0.03    0.82
  123                  CONDUIT    924.15     7  22:52      3.70    0.24    0.58
  124                  CONDUIT    497.42     7  22:53      1.48    0.12    0.78
  125                  CONDUIT    516.03     7  22:52      1.39    0.06    0.86
  126                  CONDUIT    457.58     7  22:52      0.61    0.08    1.00
  127                  CONDUIT    175.44     7  22:51      0.46    0.03    0.90
  128                  CONDUIT    175.56     7  22:51      0.43    0.02    1.00
  129                  CONDUIT    178.92     7  22:47      0.28    0.04    1.00
  130                  CONDUIT    178.65     7  22:47      0.56    0.04    1.00
  131                  CONDUIT    178.54     7  22:47      0.58    0.02    0.95
  132                  CONDUIT      0.00     0  00:00      0.00    0.00    0.00
  133                  CONDUIT      0.00     0  00:00      0.00    0.00    0.00
  134                  CONDUIT      0.00     0  00:00      0.00    0.00    0.00
  135                  CONDUIT      0.00     0  00:00      0.00    0.00    0.00
  136                  CONDUIT      0.00     0  00:00      0.00    0.00    0.00
  137                  CONDUIT      0.00     0  00:00      0.00    0.00    0.00
  138                  CONDUIT      0.00     0  00:00      0.00    0.00    0.00
  139                  CONDUIT      0.00     0  00:00      0.00    0.00    0.00
  140                  CONDUIT      0.00     0  00:00      0.00    0.00    0.00
  141                  CONDUIT      0.00     0  00:00      0.00    0.00    0.00
  142                  CONDUIT      0.00     0  00:00      0.00    0.00    0.00
  143                  CONDUIT      0.00     0  00:00      0.00    0.00    0.00
  145                  CONDUIT      0.00     0  00:00      0.00    0.00    0.45
  146                  CONDUIT      0.00     0  00:00      0.00    0.00    0.00
  147                  CONDUIT      0.00     0  00:00      0.00    0.00    0.00
  148                  CONDUIT      0.00     0  00:00      0.00    0.00    0.50
  149                  CONDUIT     69.73     7  21:17      0.16    0.00    0.71
  
  
  ***************************
  Flow Classification Summary
  ***************************
  
  -------------------------------------------------------------------------------------
                      Adjusted    ---------- Fraction of Time in Flow Class ---------- 
                       /Actual         Up    Down  Sub   Sup   Up    Down  Norm  Inlet 
  Conduit               Length    Dry  Dry   Dry   Crit  Crit  Crit  Crit  Ltd   Ctrl  
  -------------------------------------------------------------------------------------
  1                       1.00   1.00  0.00  0.00  0.00  0.00  0.00  0.00  0.05  0.00
  2                       1.00   0.00  1.00  0.00  0.00  0.00  0.00  0.00  0.05  0.00
  3                       1.00   0.00  0.00  0.00  1.00  0.00  0.00  0.00  0.00  0.00
  4                       1.00   0.00  0.00  0.00  1.00  0.00  0.00  0.00  0.00  0.00
  5                       1.16   0.00  0.00  0.00  1.00  0.00  0.00  0.00  0.05  0.00
  6                       1.00   0.00  0.00  0.00  1.00  0.00  0.00  0.00  0.00  0.00
  7                       1.00   0.00  0.00  0.00  1.00  0.00  0.00  0.00  0.00  0.00
  8                       1.00   0.00  0.00  0.00  1.00  0.00  0.00  0.00  0.00  0.00
  9                       1.00   0.00  0.00  0.00  1.00  0.00  0.00  0.00  0.00  0.00
  10                      1.00   0.00  0.00  0.00  1.00  0.00  0.00  0.00  0.00  0.00
  11                      1.00   0.00  0.00  0.00  1.00  0.00  0.00  0.00  0.00  0.00
  12                      1.00   0.00  0.00  0.00  1.00  0.00  0.00  0.00  0.00  0.00
  13                      1.00   0.00  0.00  0.00  1.00  0.00  0.00  0.00  0.00  0.00
  14                      1.00   0.00  0.00  0.00  1.00  0.00  0.00  0.00  0.00  0.00
  15                      1.12   0.00  0.00  0.00  1.00  0.00  0.00  0.00  0.00  0.00
  19                      1.00   0.00  0.00  0.00  1.00  0.00  0.00  0.00  0.00  0.00
  20                      1.00   0.00  0.00  0.00  1.00  0.00  0.00  0.00  0.00  0.00
  21                      1.00   0.00  0.00  0.00  1.00  0.00  0.00  0.00  0.00  0.00
  22                      1.00   0.00  0.00  0.00  1.00  0.00  0.00  0.00  0.00  0.00
  23                      1.00   0.00  0.00  0.00  1.00  0.00  0.00  0.00  0.00  0.00
  24                      1.00   0.00  0.00  0.00  1.00  0.00  0.00  0.00  0.00  0.00
  25                      1.49   0.00  0.00  0.00  1.00  0.00  0.00  0.00  0.03  0.00
  26                      1.00   0.00  0.00  0.00  1.00  0.00  0.00  0.00  0.00  0.00
  27                      1.00   0.00  0.00  0.00  1.00  0.00  0.00  0.00  0.00  0.00
  28                      1.00   0.00  0.00  0.00  1.00  0.00  0.00  0.00  0.00  0.00
  29                      1.00   0.00  0.00  0.00  1.00  0.00  0.00  0.00  0.00  0.00
  30                      1.00   0.00  0.00  0.00  1.00  0.00  0.00  0.00  0.00  0.00
  31                      1.00   0.00  0.00  0.00  1.00  0.00  0.00  0.00  0.00  0.00
  32                      1.00   0.00  0.00  0.00  1.00  0.00  0.00  0.00  0.00  0.00
  33                      1.00   0.00  0.00  0.00  1.00  0.00  0.00  0.00  0.00  0.00
  34                      1.00   0.00  1.00  0.00  0.00  0.00  0.00  0.00  0.00  0.00
  35                      1.00   0.00  0.00  0.00  1.00  0.00  0.00  0.00  0.00  0.00
  36                      1.00   0.00  0.00  0.00  1.00  0.00  0.00  0.00  0.00  0.00
  37                      1.00   0.00  0.00  0.00  1.00  0.00  0.00  0.00  0.00  0.00
  38                      1.00   0.00  0.00  0.00  1.00  0.00  0.00  0.00  0.00  0.00
  39                      1.00   0.00  0.00  0.00  1.00  0.00  0.00  0.00  0.00  0.00
  40                      1.00   0.00  0.00  0.00  1.00  0.00  0.00  0.00  0.00  0.00
  41                      1.00   0.00  0.00  0.00  1.00  0.00  0.00  0.00  0.00  0.00
  42                      1.00   0.00  0.00  0.00  1.00  0.00  0.00  0.00  0.00  0.00
  43                      1.00   0.00  0.00  0.00  1.00  0.00  0.00  0.00  0.00  0.00
  44                      1.00   0.00  0.00  0.00  1.00  0.00  0.00  0.00  0.00  0.00
  45                      1.00   0.00  0.00  0.00  1.00  0.00  0.00  0.00  0.00  0.00
  46                      1.03   0.00  0.00  0.00  1.00  0.00  0.00  0.00  0.00  0.00
  47                      1.00   0.00  0.00  0.00  1.00  0.00  0.00  0.00  0.00  0.00
  48                      1.00   0.00  0.00  0.00  1.00  0.00  0.00  0.00  0.00  0.00
  49                      1.00   0.00  0.00  0.00  1.00  0.00  0.00  0.00  0.00  0.00
  50                      1.00   0.00  0.00  0.00  1.00  0.00  0.00  0.00  0.00  0.00
  51                      1.00   0.00  0.00  0.00  1.00  0.00  0.00  0.00  0.00  0.00
  52                      1.00   0.00  0.00  0.00  1.00  0.00  0.00  0.00  0.00  0.00
  53                      1.00   0.00  0.00  0.00  1.00  0.00  0.00  0.00  0.00  0.00
  54                      1.00   0.00  0.00  0.00  1.00  0.00  0.00  0.00  0.00  0.00
  55                      1.00   0.00  0.00  0.00  1.00  0.00  0.00  0.00  0.00  0.00
  56                      1.00   0.00  0.00  0.00  1.00  0.00  0.00  0.00  0.00  0.00
  57                      1.00   0.00  0.00  0.00  1.00  0.00  0.00  0.00  0.05  0.00
  58                      1.00   0.00  1.00  0.00  0.00  0.00  0.00  0.00  0.00  0.00
  59                      1.00   1.00  0.00  0.00  0.00  0.00  0.00  0.00  0.00  0.00
  60                      1.00   1.00  0.00  0.00  0.00  0.00  0.00  0.00  0.00  0.00
  61                      1.00   1.00  0.00  0.00  0.00  0.00  0.00  0.00  0.00  0.00
  62                      1.04   1.00  0.00  0.00  0.00  0.00  0.00  0.00  0.00  0.00
  63                      1.00   0.00  1.00  0.00  0.00  0.00  0.00  0.00  0.00  0.00
  64                      1.00   0.00  0.00  0.00  1.00  0.00  0.00  0.00  0.00  0.00
  65                      1.00   0.00  0.00  0.00  1.00  0.00  0.00  0.00  0.00  0.00
  67                      1.00   0.00  0.00  0.00  1.00  0.00  0.00  0.00  0.00  0.00
  68                      1.95   0.00  0.00  0.00  1.00  0.00  0.00  0.00  0.00  0.00
  69                      3.49   0.00  0.00  0.00  1.00  0.00  0.00  0.00  0.00  0.00
  70                      1.00   0.00  0.00  0.00  1.00  0.00  0.00  0.00  0.00  0.00
  71                      1.63   0.00  0.00  0.00  1.00  0.00  0.00  0.00  0.00  0.00
  72                      1.00   0.00  0.00  0.00  1.00  0.00  0.00  0.00  0.00  0.00
  73                      1.00   0.00  0.00  0.00  1.00  0.00  0.00  0.00  0.00  0.00
  74                      1.00   0.00  0.00  0.00  1.00  0.00  0.00  0.00  0.00  0.00
  75                      1.00   0.00  0.00  0.00  1.00  0.00  0.00  0.00  0.00  0.00
  76                      1.00   0.00  0.00  0.00  1.00  0.00  0.00  0.00  0.00  0.00
  77                      1.00   0.00  0.00  0.00  1.00  0.00  0.00  0.00  0.00  0.00
  78                      1.00   0.00  0.00  0.00  1.00  0.00  0.00  0.00  0.00  0.00
  79                      1.00   0.00  0.00  0.00  1.00  0.00  0.00  0.00  0.00  0.00
  80                      1.00   0.00  0.00  0.00  1.00  0.00  0.00  0.00  0.00  0.00
  81                      1.00   0.00  0.00  0.00  1.00  0.00  0.00  0.00  0.00  0.00
  82                      1.00   0.00  0.00  0.00  1.00  0.00  0.00  0.00  0.00  0.00
  83                      1.00   0.00  0.00  0.00  1.00  0.00  0.00  0.00  0.00  0.00
  84                      1.00   0.00  0.00  0.00  1.00  0.00  0.00  0.00  0.00  0.00
  85                      1.00   0.00  0.00  0.00  1.00  0.00  0.00  0.00  0.00  0.00
  86                      1.00   0.00  0.00  0.00  1.00  0.00  0.00  0.00  0.00  0.00
  87                      1.00   0.00  0.00  0.00  1.00  0.00  0.00  0.00  0.00  0.00
  88                      1.04   0.00  0.00  0.00  1.00  0.00  0.00  0.00  0.00  0.00
  89                      1.00   0.00  1.00  0.00  0.00  0.00  0.00  0.00  0.00  0.00
  90                      9.81   0.00  0.00  0.00  1.00  0.00  0.00  0.00  0.00  0.00
  91                     40.90   0.00  0.00  0.00  1.00  0.00  0.00  0.00  0.00  0.00
  92                    776.95   0.00  1.00  0.00  0.00  0.00  0.00  0.00  0.00  0.00
  93                      8.28   0.00  0.00  0.00  1.00  0.00  0.00  0.00  0.00  0.00
  94                      1.46   0.00  0.00  0.00  1.00  0.00  0.00  0.00  0.00  0.00
  95                      1.00   0.00  1.00  0.00  0.00  0.00  0.00  0.00  0.05  0.00
  96                      1.93   0.00  0.00  0.00  1.00  0.00  0.00  0.00  0.00  0.00
  97                      1.21   0.00  0.00  0.00  1.00  0.00  0.00  0.00  0.05  0.00
  98                      1.20   0.00  1.00  0.00  0.00  0.00  0.00  0.00  0.05  0.00
  99                      1.35   0.00  1.00  0.00  0.00  0.00  0.00  0.00  0.05  0.00
  100                     1.54   0.00  0.00  0.00  1.00  0.00  0.00  0.00  0.05  0.00
  101                     1.00   1.00  0.00  0.00  0.00  0.00  0.00  0.00  0.00  0.00
  102                     1.16   0.00  1.00  0.00  0.00  0.00  0.00  0.00  0.00  0.00
  103                     1.00   0.00  0.00  0.00  1.00  0.00  0.00  0.00  0.00  0.00
  104                     1.00   0.00  1.00  0.00  0.00  0.00  0.00  0.00  0.05  0.00
  17                      1.00   0.00  0.00  0.00  1.00  0.00  0.00  0.00  0.00  0.00
  18                      1.00   0.00  0.00  0.00  1.00  0.00  0.00  0.00  0.00  0.00
  66                      1.00   0.00  0.00  0.00  1.00  0.00  0.00  0.00  0.00  0.00
  105                     1.00   0.00  0.00  0.00  1.00  0.00  0.00  0.00  0.00  0.00
  106                     1.00   0.00  0.00  0.00  1.00  0.00  0.00  0.00  0.00  0.00
  107                     1.00   0.00  0.00  0.00  1.00  0.00  0.00  0.00  0.00  0.00
  108                     1.00   0.00  0.00  0.00  1.00  0.00  0.00  0.00  0.00  0.00
  109                     1.00   0.00  0.00  0.00  1.00  0.00  0.00  0.00  0.00  0.00
  110                     1.00   0.00  0.00  0.00  1.00  0.00  0.00  0.00  0.00  0.00
  111                     1.00   0.00  0.00  0.00  1.00  0.00  0.00  0.00  0.00  0.00
  112                     1.00   0.00  0.00  0.00  1.00  0.00  0.00  0.00  0.00  0.00
  113                     1.31   0.00  0.00  0.00  1.00  0.00  0.00  0.00  0.00  0.00
  114                     1.00   0.00  0.00  0.00  1.00  0.00  0.00  0.00  0.00  0.00
  115                     1.00   0.00  0.00  0.00  1.00  0.00  0.00  0.00  0.00  0.00
  116                     1.00   0.00  0.00  0.00  1.00  0.00  0.00  0.00  0.00  0.00
  117                     1.00   0.00  0.00  0.00  1.00  0.00  0.00  0.00  0.00  0.00
  118                     1.00   0.00  0.00  0.00  1.00  0.00  0.00  0.00  0.00  0.00
  119                     1.00   0.00  0.00  0.00  1.00  0.00  0.00  0.00  0.00  0.00
  120                     1.00   0.00  0.00  0.00  1.00  0.00  0.00  0.00  0.00  0.00
  121                     1.00   0.00  0.00  0.00  1.00  0.00  0.00  0.00  0.00  0.00
  122                     1.00   0.00  0.00  0.00  1.00  0.00  0.00  0.00  0.00  0.00
  123                     1.27   0.00  0.00  0.00  1.00  0.00  0.00  0.00  0.00  0.00
  124                     1.00   0.00  0.00  0.00  1.00  0.00  0.00  0.00  0.00  0.00
  125                     1.00   0.00  0.00  0.00  1.00  0.00  0.00  0.00  0.00  0.00
  126                     1.00   0.00  0.00  0.00  1.00  0.00  0.00  0.00  0.00  0.00
  127                     1.00   0.00  0.00  0.00  1.00  0.00  0.00  0.00  0.00  0.00
  128                     1.00   0.00  0.00  0.00  1.00  0.00  0.00  0.00  0.00  0.00
  129                     1.00   0.00  0.00  0.00  1.00  0.00  0.00  0.00  0.00  0.00
  130                     1.00   0.00  0.00  0.00  1.00  0.00  0.00  0.00  0.00  0.00
  131                     1.00   0.00  0.00  0.00  1.00  0.00  0.00  0.00  0.00  0.00
  132                     1.85   1.00  0.00  0.00  0.00  0.00  0.00  0.00  0.00  0.00
  133                     1.00   1.00  0.00  0.00  0.00  0.00  0.00  0.00  0.00  0.00
  134                     1.00   1.00  0.00  0.00  0.00  0.00  0.00  0.00  0.00  0.00
  135                     1.12   1.00  0.00  0.00  0.00  0.00  0.00  0.00  0.00  0.00
  136                     1.00   1.00  0.00  0.00  0.00  0.00  0.00  0.00  0.00  0.00
  137                     1.00   1.00  0.00  0.00  0.00  0.00  0.00  0.00  0.00  0.00
  138                     1.00   1.00  0.00  0.00  0.00  0.00  0.00  0.00  0.00  0.00
  139                     1.00   1.00  0.00  0.00  0.00  0.00  0.00  0.00  0.00  0.00
  140                     1.33   1.00  0.00  0.00  0.00  0.00  0.00  0.00  0.00  0.00
  141                     1.18   1.00  0.00  0.00  0.00  0.00  0.00  0.00  0.00  0.00
  142                     1.00   1.00  0.00  0.00  0.00  0.00  0.00  0.00  0.00  0.00
  143                     1.00   1.00  0.00  0.00  0.00  0.00  0.00  0.00  0.00  0.00
  145                     1.00   0.00  1.00  0.00  0.00  0.00  0.00  0.00  0.05  0.00
  146                     2.31   1.00  0.00  0.00  0.00  0.00  0.00  0.00  0.00  0.00
  147                    90.89   1.00  0.00  0.00  0.00  0.00  0.00  0.00  0.00  0.00
  148                     2.61   0.00  1.00  0.00  0.00  0.00  0.00  0.00  0.00  0.00
  149                     1.00   0.00  0.00  0.00  1.00  0.00  0.00  0.00  0.00  0.00
  
  
  *************************
  Conduit Surcharge Summary
  *************************
  
  ----------------------------------------------------------------------------
                                                           Hours        Hours 
                         --------- Hours Full --------   Above Full   Capacity
  Conduit                Both Ends  Upstream  Dnstream   Normal Flow   Limited
  ----------------------------------------------------------------------------
  7                           0.01      0.01     10.00      0.01         0.01
  8                          10.00     10.00     10.00      0.01         2.07
  9                          10.00     10.00     10.00      0.01         0.01
  10                         10.00     10.00     10.00      0.01         0.01
  11                         10.00     10.00     10.00      0.01         0.01
  12                         10.00     10.00     10.00      0.01         0.01
  13                         10.00     10.00     10.00      0.01         0.01
  14                         10.00     10.00     10.00      0.01         0.01
  15                          0.01      0.01     10.00      0.01         0.01
  19                         10.00     10.00     10.00      0.01         0.01
  20                         10.00     10.00     10.00      0.01         0.01
  21                         10.00     10.00     10.00      0.01         0.01
  22                          0.01      0.01     10.00      0.01         0.01
  27                          0.01      0.01      2.05      0.01         0.01
  29                          0.01      0.01     10.00      0.01         0.01
  31                         10.00     10.00     10.00      0.01         0.01
  32                         10.00     10.00     10.00      0.01         0.01
  33                         10.00     10.00     10.00      0.01         0.01
  37                         10.00     10.00     10.00      0.01         0.01
  38                         10.00     10.00     10.00      0.01         0.01
  39                         10.00     10.00     10.00      0.01         4.87
  40                         10.00     10.00     10.00      0.01         0.01
  41                         10.00     10.00     10.00      0.01         0.01
  42                         10.00     10.00     10.00      0.01         0.01
  44                         10.00     10.00     10.00      0.01         0.01
  45                         10.00     10.00     10.00      0.01         0.01
  46                         10.00     10.00     10.00      0.01         0.01
  47                         10.00     10.00     10.00      0.01         0.01
  48                         10.00     10.00     10.00      0.01         4.76
  49                         10.00     10.00     10.00      0.01         0.01
  50                          0.01      0.01     10.00      0.01         0.01
  51                          0.01      0.01     10.00      0.01         0.01
  53                          0.01      0.01     10.00      0.01         0.01
  54                         10.00     10.00     10.00      0.01         0.01
  55                         10.00     10.00     10.00      0.01         0.01
  56                         10.00     10.00     10.00      0.01         4.10
  57                          0.01      0.01     10.00      0.01         0.01
  65                          0.01      0.01     10.00      0.01         0.01
  68                         10.00     10.00     10.00      0.01         0.01
  70                          9.98      9.99      9.99      0.01         0.01
  71                          0.01      0.01     10.00      0.01         0.01
  72                         10.00     10.00     10.00      0.01         0.01
  74                          0.01      0.01     10.00      0.01         0.01
  75                         10.00     10.00     10.00      0.01         0.01
  76                         10.00     10.00     10.00      0.01         5.03
  77                         10.00     10.00     10.00      0.01         0.01
  78                         10.00     10.00     10.00      0.01         3.15
  79                          0.01      0.01     10.00      0.01         0.01
  80                         10.00     10.00     10.00      0.01         4.81
  81                         10.00     10.00     10.00      0.01         0.01
  82                         10.00     10.00     10.00      0.01         0.01
  83                         10.00     10.00     10.00      0.01         0.01
  85                         10.00     10.00     10.00      0.01         4.62
  86                         10.00     10.00     10.00      0.01         0.01
  87                          0.01      0.01     10.00      0.01         0.01
  90                          0.01      0.01     10.00      0.01         0.01
  91                         10.00     10.00     10.00      0.01         0.01
  93                          0.01      0.01     10.00      0.01         0.01
  94                         10.00     10.00     10.00      0.01         0.01
  17                         10.00     10.00     10.00      0.01         0.01
  18                         10.00     10.00     10.00      0.01         0.01
  66                         10.00     10.00     10.00      0.01         0.01
  105                         9.89      9.91      9.89      0.01         2.12
  106                        10.00     10.00     10.00      0.01         0.01
  107                         0.03      0.03     10.00      0.01         0.01
  108                         0.03      0.03     10.00      0.01         0.01
  109                         0.01      0.01     10.00      0.01         0.01
  110                         0.01      0.01      9.99      0.01         0.01
  111                         9.98      9.99      9.99      0.06         1.94
  112                         0.01      0.01      0.02      0.05         0.01
  113                         9.97      9.98      9.98      0.05         1.46
  114                         9.98      9.98     10.00      0.01         0.01
  115                        10.00     10.00     10.00      0.01         0.02
  116                        10.00     10.00     10.00      0.01         0.01
  117                        10.00     10.00     10.00      0.01         0.03
  118                        10.00     10.00     10.00      0.01         0.01
  119                        10.00     10.00     10.00      0.01         0.01
  120                        10.00     10.00     10.00      0.01         0.01
  122                         0.01      0.01     10.00      0.01         0.01
  126                         9.81      9.81     10.00      0.01         0.01
  127                         0.01      0.01     10.00      0.01         0.01
  128                         0.35      0.35     10.00      0.01         0.01
  129                        10.00     10.00     10.00      0.01         0.01
  130                        10.00     10.00     10.00      0.01         0.01
  131                         0.01      0.01     10.00      0.01         0.01
  149                         0.01      0.01     10.00      0.01         0.01
  
  
  ************
  Node Results
  ************
  
  <<< Node 1 >>>
  ----------------------------------------------------------------
                           Inflow  Flooding     Depth      Head
  Date        Time            CFS       CFS      feet      feet
  ----------------------------------------------------------------
   01/08/2020 14:00:00      0.000     0.000     0.000    10.010
   01/08/2020 14:15:00      0.000     0.000     0.000    10.010
   01/08/2020 14:30:00      0.000     0.000     0.000    10.010
   01/08/2020 14:45:00      0.000     0.000     0.000    10.010
   01/08/2020 15:00:00      0.000     0.000     0.000    10.010
   01/08/2020 15:15:00      0.000     0.000     0.000    10.010
   01/08/2020 15:30:00      0.000     0.000     0.000    10.010
   01/08/2020 15:45:00      0.000     0.000     0.000    10.010
   01/08/2020 16:00:00      0.000     0.000     0.000    10.010
   01/08/2020 16:15:00      0.000     0.000     0.000    10.010
   01/08/2020 16:30:00      0.000     0.000     0.000    10.010
   01/08/2020 16:45:00      0.000     0.000     0.000    10.010
   01/08/2020 17:00:00      0.000     0.000     0.000    10.010
   01/08/2020 17:15:00      0.000     0.000     0.000    10.010
   01/08/2020 17:30:00      0.000     0.000     0.000    10.010
   01/08/2020 17:45:00      0.000     0.000     0.000    10.010
   01/08/2020 18:00:00      0.000     0.000     0.000    10.010
   01/08/2020 18:15:00      0.000     0.000     0.000    10.010
   01/08/2020 18:30:00      0.000     0.000     0.000    10.010
   01/08/2020 18:45:00      0.000     0.000     0.000    10.010
   01/08/2020 19:00:00      0.000     0.000     0.000    10.010
   01/08/2020 19:15:00      0.000     0.000     0.000    10.010
   01/08/2020 19:30:00      0.000     0.000     0.000    10.010
   01/08/2020 19:45:00      0.000     0.000     0.000    10.010
   01/08/2020 20:00:00      0.000     0.000     0.000    10.010
   01/08/2020 20:15:00      0.000     0.000     0.000    10.010
   01/08/2020 20:30:00      0.000     0.000     0.000    10.010
   01/08/2020 20:45:00      0.000     0.000     0.000    10.010
   01/08/2020 21:00:00      0.000     0.000     0.000    10.010
   01/08/2020 21:15:00      0.000     0.000     0.000    10.010
   01/08/2020 21:30:00      0.000     0.000     0.000    10.010
   01/08/2020 21:45:00      0.000     0.000     0.000    10.010
   01/08/2020 22:00:00      0.000     0.000     0.000    10.010
   01/08/2020 22:15:00      0.000     0.000     0.000    10.010
   01/08/2020 22:30:00      0.000     0.000     0.000    10.010
   01/08/2020 22:45:00      0.000     0.000     0.000    10.010
   01/08/2020 23:00:00      0.000     0.000     0.000    10.010
   01/08/2020 23:15:00      0.000     0.000     0.000    10.010
   01/08/2020 23:30:00      0.000     0.000     0.000    10.010
   01/08/2020 23:45:00      0.000     0.000     0.000    10.010
   01/09/2020 00:00:00      0.000     0.000     0.000    10.010
  
  
  <<< Node 2 >>>
  ----------------------------------------------------------------
                           Inflow  Flooding     Depth      Head
  Date        Time            CFS       CFS      feet      feet
  ----------------------------------------------------------------
   01/08/2020 14:00:00      0.000     0.000     0.000     8.990
   01/08/2020 14:15:00      0.000     0.000     0.000     8.990
   01/08/2020 14:30:00      0.000     0.000     0.000     8.990
   01/08/2020 14:45:00      0.000     0.000     0.000     8.990
   01/08/2020 15:00:00      0.000     0.000     0.000     8.990
   01/08/2020 15:15:00      0.000     0.000     0.000     8.990
   01/08/2020 15:30:00      0.000     0.000     0.000     8.990
   01/08/2020 15:45:00      0.000     0.000     0.000     8.990
   01/08/2020 16:00:00      0.000     0.000     0.000     8.990
   01/08/2020 16:15:00      0.000     0.000     0.000     8.990
   01/08/2020 16:30:00      0.000     0.000     0.000     8.990
   01/08/2020 16:45:00      0.000     0.000     0.000     8.990
   01/08/2020 17:00:00      0.000     0.000     0.000     8.990
   01/08/2020 17:15:00      0.000     0.000     0.000     8.990
   01/08/2020 17:30:00      0.000     0.000     0.000     8.990
   01/08/2020 17:45:00      0.000     0.000     0.000     8.990
   01/08/2020 18:00:00      0.000     0.000     0.000     8.990
   01/08/2020 18:15:00      0.000     0.000     0.000     8.990
   01/08/2020 18:30:00      0.000     0.000     0.000     8.990
   01/08/2020 18:45:00      0.000     0.000     0.000     8.990
   01/08/2020 19:00:00      0.000     0.000     0.000     8.990
   01/08/2020 19:15:00      0.000     0.000     0.000     8.990
   01/08/2020 19:30:00      0.000     0.000     0.000     8.990
   01/08/2020 19:45:00      0.000     0.000     0.000     8.990
   01/08/2020 20:00:00      0.000     0.000     0.000     8.990
   01/08/2020 20:15:00      0.000     0.000     0.000     8.990
   01/08/2020 20:30:00      0.000     0.000     0.000     8.990
   01/08/2020 20:45:00      0.000     0.000     0.000     8.990
   01/08/2020 21:00:00      0.000     0.000     0.000     8.990
   01/08/2020 21:15:00      0.000     0.000     0.000     8.990
   01/08/2020 21:30:00      0.000     0.000     0.000     8.990
   01/08/2020 21:45:00      0.000     0.000     0.000     8.990
   01/08/2020 22:00:00      0.000     0.000     0.000     8.990
   01/08/2020 22:15:00      0.000     0.000     0.000     8.990
   01/08/2020 22:30:00      0.000     0.000     0.000     8.990
   01/08/2020 22:45:00      0.000     0.000     0.000     8.990
   01/08/2020 23:00:00      0.000     0.000     0.000     8.990
   01/08/2020 23:15:00      0.000     0.000     0.000     8.990
   01/08/2020 23:30:00      0.000     0.000     0.000     8.990
   01/08/2020 23:45:00      0.000     0.000     0.000     8.990
   01/09/2020 00:00:00      0.000     0.000     0.000     8.990
  
  
  <<< Node 3 >>>
  ----------------------------------------------------------------
                           Inflow  Flooding     Depth      Head
  Date        Time            CFS       CFS      feet      feet
[...]
   01/08/2020 16:15:00      0.000     0.000     0.000     0.000
   01/08/2020 16:30:00      0.000     0.000     0.000     0.000
   01/08/2020 16:45:00      0.000     0.000     0.000     0.000
   01/08/2020 17:00:00      0.000     0.000     0.000     0.000
   01/08/2020 17:15:00      0.000     0.000     0.000     0.000
   01/08/2020 17:30:00      0.000     0.000     0.000     0.000
   01/08/2020 17:45:00      0.000     0.000     0.000     0.000
   01/08/2020 18:00:00      0.000     0.000     0.000     0.000
   01/08/2020 18:15:00      0.000     0.000     0.000     0.000
   01/08/2020 18:30:00      0.000     0.000     0.000     0.000
   01/08/2020 18:45:00      0.000     0.000     0.000     0.000
   01/08/2020 19:00:00      0.000     0.000     0.000     0.000
   01/08/2020 19:15:00      0.000     0.000     0.000     0.000
   01/08/2020 19:30:00      0.000     0.000     0.000     0.000
   01/08/2020 19:45:00      0.000     0.000     0.000     0.000
   01/08/2020 20:00:00      0.000     0.000     0.000     0.000
   01/08/2020 20:15:00      0.000     0.000     0.000     0.000
   01/08/2020 20:30:00      0.000     0.000     0.000     0.000
   01/08/2020 20:45:00      0.000     0.000     0.000     0.000
   01/08/2020 21:00:00      0.000     0.000     0.000     0.000
   01/08/2020 21:15:00      0.000     0.000     0.000     0.000
   01/08/2020 21:30:00      0.000     0.000     0.000     0.000
   01/08/2020 21:45:00      0.000     0.000     0.000     0.000
   01/08/2020 22:00:00      0.000     0.000     0.000     0.000
   01/08/2020 22:15:00      0.000     0.000     0.000     0.000
   01/08/2020 22:30:00      0.000     0.000     0.000     0.000
   01/08/2020 22:45:00      0.000     0.000     0.000     0.000
   01/08/2020 23:00:00      0.000     0.000     0.000     0.000
   01/08/2020 23:15:00      0.000     0.000     0.000     0.000
   01/08/2020 23:30:00      0.000     0.000     0.000     0.000
   01/08/2020 23:45:00      0.000     0.000     0.000     0.000
   01/09/2020 00:00:00      0.000     0.000     0.000     0.000
  
  
  <<< Link 143 >>>
  ----------------------------------------------------------------
                             Flow  Velocity     Depth  Capacity/
  Date        Time            CFS    ft/sec      feet   Setting 
  ----------------------------------------------------------------
   01/08/2020 14:00:00      0.000     0.000     0.000     0.000
   01/08/2020 14:15:00      0.000     0.000     0.000     0.000
   01/08/2020 14:30:00      0.000     0.000     0.000     0.000
   01/08/2020 14:45:00      0.000     0.000     0.000     0.000
   01/08/2020 15:00:00      0.000     0.000     0.000     0.000
   01/08/2020 15:15:00      0.000     0.000     0.000     0.000
   01/08/2020 15:30:00      0.000     0.000     0.000     0.000
   01/08/2020 15:45:00      0.000     0.000     0.000     0.000
   01/08/2020 16:00:00      0.000     0.000     0.000     0.000
   01/08/2020 16:15:00      0.000     0.000     0.000     0.000
   01/08/2020 16:30:00      0.000     0.000     0.000     0.000
   01/08/2020 16:45:00      0.000     0.000     0.000     0.000
   01/08/2020 17:00:00      0.000     0.000     0.000     0.000
   01/08/2020 17:15:00      0.000     0.000     0.000     0.000
   01/08/2020 17:30:00      0.000     0.000     0.000     0.000
   01/08/2020 17:45:00      0.000     0.000     0.000     0.000
   01/08/2020 18:00:00      0.000     0.000     0.000     0.000
   01/08/2020 18:15:00      0.000     0.000     0.000     0.000
   01/08/2020 18:30:00      0.000     0.000     0.000     0.000
   01/08/2020 18:45:00      0.000     0.000     0.000     0.000
   01/08/2020 19:00:00      0.000     0.000     0.000     0.000
   01/08/2020 19:15:00      0.000     0.000     0.000     0.000
   01/08/2020 19:30:00      0.000     0.000     0.000     0.000
   01/08/2020 19:45:00      0.000     0.000     0.000     0.000
   01/08/2020 20:00:00      0.000     0.000     0.000     0.000
   01/08/2020 20:15:00      0.000     0.000     0.000     0.000
   01/08/2020 20:30:00      0.000     0.000     0.000     0.000
   01/08/2020 20:45:00      0.000     0.000     0.000     0.000
   01/08/2020 21:00:00      0.000     0.000     0.000     0.000
   01/08/2020 21:15:00      0.000     0.000     0.000     0.000
   01/08/2020 21:30:00      0.000     0.000     0.000     0.000
   01/08/2020 21:45:00      0.000     0.000     0.000     0.000
   01/08/2020 22:00:00      0.000     0.000     0.000     0.000
   01/08/2020 22:15:00      0.000     0.000     0.000     0.000
   01/08/2020 22:30:00      0.000     0.000     0.000     0.000
   01/08/2020 22:45:00      0.000     0.000     0.000     0.000
   01/08/2020 23:00:00      0.000     0.000     0.000     0.000
   01/08/2020 23:15:00      0.000     0.000     0.000     0.000
   01/08/2020 23:30:00      0.000     0.000     0.000     0.000
   01/08/2020 23:45:00      0.000     0.000     0.000     0.000
   01/09/2020 00:00:00      0.000     0.000     0.000     0.000
  
  
  <<< Link 145 >>>
  ----------------------------------------------------------------
                             Flow  Velocity     Depth  Capacity/
  Date        Time            CFS    ft/sec      feet   Setting 
  ----------------------------------------------------------------
   01/08/2020 14:00:00     -0.000    -0.000     5.857     0.390
   01/08/2020 14:15:00     -0.000    -0.000     5.951     0.397
   01/08/2020 14:30:00     -0.000    -0.000     5.566     0.371
   01/08/2020 14:45:00     -0.000    -0.000     5.884     0.392
   01/08/2020 15:00:00     -0.000    -0.000     5.514     0.368
   01/08/2020 15:15:00     -0.000    -0.000     5.748     0.383
   01/08/2020 15:30:00     -0.000    -0.000     5.829     0.389
   01/08/2020 15:45:00     -0.000    -0.000     5.643     0.376
   01/08/2020 16:00:00     -0.000    -0.000     5.809     0.387
   01/08/2020 16:15:00     -0.000    -0.000     5.624     0.375
   01/08/2020 16:30:00     -0.000    -0.000     5.734     0.382
   01/08/2020 16:45:00     -0.000    -0.000     5.792     0.386
   01/08/2020 17:00:00     -0.000    -0.000     5.650     0.377
   01/08/2020 17:15:00     -0.000    -0.000     5.802     0.387
   01/08/2020 17:30:00     -0.000    -0.000     5.639     0.376
   01/08/2020 17:45:00     -0.000    -0.000     5.724     0.382
   01/08/2020 18:00:00     -0.000    -0.000     5.814     0.388
   01/08/2020 18:15:00     -0.000    -0.000     5.656     0.377
   01/08/2020 18:30:00     -0.000    -0.000     5.762     0.384
   01/08/2020 18:45:00     -0.000    -0.000     5.661     0.377
   01/08/2020 19:00:00     -0.000    -0.000     5.687     0.379
   01/08/2020 19:15:00     -0.000    -0.000     5.789     0.386
   01/08/2020 19:30:00     -0.000    -0.000     5.688     0.379
   01/08/2020 19:45:00     -0.000    -0.000     5.741     0.383
   01/08/2020 20:00:00     -0.000    -0.000     5.682     0.379
   01/08/2020 20:15:00     -0.000    -0.000     5.678     0.379
   01/08/2020 20:30:00     -0.000    -0.000     5.775     0.385
   01/08/2020 20:45:00     -0.000    -0.000     5.693     0.380
   01/08/2020 21:00:00     -0.000    -0.000     5.730     0.382
   01/08/2020 21:15:00     -0.000    -0.000     5.683     0.379
   01/08/2020 21:30:00     -0.000    -0.000     6.058     0.404
   01/08/2020 21:45:00     -0.000    -0.000     5.738     0.383
   01/08/2020 22:00:00     -0.000    -0.000     5.848     0.390
   01/08/2020 22:15:00     -0.000    -0.000     6.345     0.423
   01/08/2020 22:30:00     -0.000    -0.000     5.734     0.382
   01/08/2020 22:45:00     -0.000    -0.000     5.886     0.392
   01/08/2020 23:00:00     -0.000    -0.000     5.710     0.381
   01/08/2020 23:15:00     -0.000    -0.000     6.171     0.411
   01/08/2020 23:30:00     -0.000    -0.000     6.160     0.411
   01/08/2020 23:45:00     -0.000    -0.000     5.731     0.382
   01/09/2020 00:00:00     -0.000    -0.000     6.071     0.405
  
  
  <<< Link 146 >>>
  ----------------------------------------------------------------
                             Flow  Velocity     Depth  Capacity/
  Date        Time            CFS    ft/sec      feet   Setting 
  ----------------------------------------------------------------
   01/08/2020 14:00:00     -0.000    -0.000     0.000     0.000
   01/08/2020 14:15:00     -0.000    -0.000     0.000     0.000
   01/08/2020 14:30:00     -0.000    -0.000     0.000     0.000
   01/08/2020 14:45:00     -0.000    -0.000     0.000     0.000
   01/08/2020 15:00:00     -0.000    -0.000     0.000     0.000
   01/08/2020 15:15:00     -0.000    -0.000     0.000     0.000
   01/08/2020 15:30:00     -0.000    -0.000     0.000     0.000
   01/08/2020 15:45:00     -0.000    -0.000     0.000     0.000
   01/08/2020 16:00:00     -0.000    -0.000     0.000     0.000
   01/08/2020 16:15:00     -0.000    -0.000     0.000     0.000
   01/08/2020 16:30:00     -0.000    -0.000     0.000     0.000
   01/08/2020 16:45:00     -0.000    -0.000     0.000     0.000
   01/08/2020 17:00:00     -0.000    -0.000     0.000     0.000
   01/08/2020 17:15:00     -0.000    -0.000     0.000     0.000
   01/08/2020 17:30:00     -0.000    -0.000     0.000     0.000
   01/08/2020 17:45:00     -0.000    -0.000     0.000     0.000
   01/08/2020 18:00:00     -0.000    -0.000     0.000     0.000
   01/08/2020 18:15:00     -0.000    -0.000     0.000     0.000
   01/08/2020 18:30:00     -0.000    -0.000     0.000     0.000
   01/08/2020 18:45:00     -0.000    -0.000     0.000     0.000
   01/08/2020 19:00:00     -0.000    -0.000     0.000     0.000
   01/08/2020 19:15:00     -0.000    -0.000     0.000     0.000
   01/08/2020 19:30:00     -0.000    -0.000     0.000     0.000
   01/08/2020 19:45:00     -0.000    -0.000     0.000     0.000
   01/08/2020 20:00:00     -0.000    -0.000     0.000     0.000
   01/08/2020 20:15:00     -0.000    -0.000     0.000     0.000
   01/08/2020 20:30:00     -0.000    -0.000     0.000     0.000
   01/08/2020 20:45:00     -0.000    -0.000     0.000     0.000
   01/08/2020 21:00:00     -0.000    -0.000     0.000     0.000
   01/08/2020 21:15:00     -0.000    -0.000     0.000     0.000
   01/08/2020 21:30:00     -0.000    -0.000     0.000     0.000
   01/08/2020 21:45:00     -0.000    -0.000     0.000     0.000
   01/08/2020 22:00:00     -0.000    -0.000     0.000     0.000
   01/08/2020 22:15:00     -0.000    -0.000     0.000     0.000
   01/08/2020 22:30:00     -0.000    -0.000     0.000     0.000
   01/08/2020 22:45:00     -0.000    -0.000     0.000     0.000
   01/08/2020 23:00:00     -0.000    -0.000     0.000     0.000
   01/08/2020 23:15:00     -0.000    -0.000     0.000     0.000
   01/08/2020 23:30:00     -0.000    -0.000     0.000     0.000
   01/08/2020 23:45:00     -0.000    -0.000     0.000     0.000
   01/09/2020 00:00:00     -0.000    -0.000     0.000     0.000
  
  
  <<< Link 147 >>>
  ----------------------------------------------------------------
                             Flow  Velocity     Depth  Capacity/
  Date        Time            CFS    ft/sec      feet   Setting 
  ----------------------------------------------------------------
   01/08/2020 14:00:00      0.000     0.000     0.000     0.000
   01/08/2020 14:15:00      0.000     0.000     0.000     0.000
   01/08/2020 14:30:00      0.000     0.000     0.000     0.000
   01/08/2020 14:45:00      0.000     0.000     0.000     0.000
   01/08/2020 15:00:00      0.000     0.000     0.000     0.000
   01/08/2020 15:15:00      0.000     0.000     0.000     0.000
   01/08/2020 15:30:00      0.000     0.000     0.000     0.000
   01/08/2020 15:45:00      0.000     0.000     0.000     0.000
   01/08/2020 16:00:00      0.000     0.000     0.000     0.000
   01/08/2020 16:15:00      0.000     0.000     0.000     0.000
   01/08/2020 16:30:00      0.000     0.000     0.000     0.000
   01/08/2020 16:45:00      0.000     0.000     0.000     0.000
   01/08/2020 17:00:00      0.000     0.000     0.000     0.000
   01/08/2020 17:15:00      0.000     0.000     0.000     0.000
   01/08/2020 17:30:00      0.000     0.000     0.000     0.000
   01/08/2020 17:45:00      0.000     0.000     0.000     0.000
   01/08/2020 18:00:00      0.000     0.000     0.000     0.000
   01/08/2020 18:15:00      0.000     0.000     0.000     0.000
   01/08/2020 18:30:00      0.000     0.000     0.000     0.000
   01/08/2020 18:45:00      0.000     0.000     0.000     0.000
   01/08/2020 19:00:00      0.000     0.000     0.000     0.000
   01/08/2020 19:15:00      0.000     0.000     0.000     0.000
   01/08/2020 19:30:00      0.000     0.000     0.000     0.000
   01/08/2020 19:45:00      0.000     0.000     0.000     0.000
   01/08/2020 20:00:00      0.000     0.000     0.000     0.000
   01/08/2020 20:15:00      0.000     0.000     0.000     0.000
   01/08/2020 20:30:00      0.000     0.000     0.000     0.000
   01/08/2020 20:45:00      0.000     0.000     0.000     0.000
   01/08/2020 21:00:00      0.000     0.000     0.000     0.000
   01/08/2020 21:15:00      0.000     0.000     0.000     0.000
   01/08/2020 21:30:00      0.000     0.000     0.000     0.000
   01/08/2020 21:45:00      0.000     0.000     0.000     0.000
   01/08/2020 22:00:00      0.000     0.000     0.000     0.000
   01/08/2020 22:15:00      0.000     0.000     0.000     0.000
   01/08/2020 22:30:00      0.000     0.000     0.000     0.000
   01/08/2020 22:45:00      0.000     0.000     0.000     0.000
   01/08/2020 23:00:00      0.000     0.000     0.000     0.000
   01/08/2020 23:15:00      0.000     0.000     0.000     0.000
   01/08/2020 23:30:00      0.000     0.000     0.000     0.000
   01/08/2020 23:45:00      0.000     0.000     0.000     0.000
   01/09/2020 00:00:00      0.000     0.000     0.000     0.000
  
  
  <<< Link 148 >>>
  ----------------------------------------------------------------
                             Flow  Velocity     Depth  Capacity/
  Date        Time            CFS    ft/sec      feet   Setting 
  ----------------------------------------------------------------
   01/08/2020 14:00:00      0.000     0.000     7.500     0.500
   01/08/2020 14:15:00      0.000     0.000     7.500     0.500
   01/08/2020 14:30:00      0.000     0.000     7.500     0.500
   01/08/2020 14:45:00      0.000     0.000     7.500     0.500
   01/08/2020 15:00:00      0.000     0.000     7.500     0.500
   01/08/2020 15:15:00      0.000     0.000     7.500     0.500
   01/08/2020 15:30:00      0.000     0.000     7.500     0.500
   01/08/2020 15:45:00      0.000     0.000     7.500     0.500
   01/08/2020 16:00:00      0.000     0.000     7.500     0.500
   01/08/2020 16:15:00      0.000     0.000     7.500     0.500
   01/08/2020 16:30:00      0.000     0.000     7.500     0.500
   01/08/2020 16:45:00      0.000     0.000     7.500     0.500
   01/08/2020 17:00:00      0.000     0.000     7.500     0.500
   01/08/2020 17:15:00      0.000     0.000     7.500     0.500
   01/08/2020 17:30:00      0.000     0.000     7.500     0.500
   01/08/2020 17:45:00      0.000     0.000     7.500     0.500
   01/08/2020 18:00:00      0.000     0.000     7.500     0.500
   01/08/2020 18:15:00      0.000     0.000     7.500     0.500
   01/08/2020 18:30:00      0.000     0.000     7.500     0.500
   01/08/2020 18:45:00      0.000     0.000     7.500     0.500
   01/08/2020 19:00:00      0.000     0.000     7.500     0.500
   01/08/2020 19:15:00      0.000     0.000     7.500     0.500
   01/08/2020 19:30:00      0.000     0.000     7.500     0.500
   01/08/2020 19:45:00      0.000     0.000     7.500     0.500
   01/08/2020 20:00:00      0.000     0.000     7.500     0.500
   01/08/2020 20:15:00      0.000     0.000     7.500     0.500
   01/08/2020 20:30:00      0.000     0.000     7.500     0.500
   01/08/2020 20:45:00      0.000     0.000     7.500     0.500
   01/08/2020 21:00:00      0.000     0.000     7.500     0.500
   01/08/2020 21:15:00      0.000     0.000     7.500     0.500
   01/08/2020 21:30:00      0.000     0.000     7.500     0.500
   01/08/2020 21:45:00      0.000     0.000     7.500     0.500
   01/08/2020 22:00:00      0.000     0.000     7.500     0.500
   01/08/2020 22:15:00      0.000     0.000     7.500     0.500
   01/08/2020 22:30:00      0.000     0.000     7.500     0.500
   01/08/2020 22:45:00      0.000     0.000     7.500     0.500
   01/08/2020 23:00:00      0.000     0.000     7.500     0.500
   01/08/2020 23:15:00      0.000     0.000     7.500     0.500
   01/08/2020 23:30:00      0.000     0.000     7.500     0.500
   01/08/2020 23:45:00      0.000     0.000     7.500     0.500
   01/09/2020 00:00:00      0.000     0.000     7.500     0.500
  
  
  <<< Link 149 >>>
  ----------------------------------------------------------------
                             Flow  Velocity     Depth  Capacity/
  Date        Time            CFS    ft/sec      feet   Setting 
  ----------------------------------------------------------------
   01/08/2020 14:00:00      2.426     0.005    17.181     0.789
   01/08/2020 14:15:00     -4.369    -0.010    17.186     0.790
   01/08/2020 14:30:00      6.349     0.014    17.182     0.789
   01/08/2020 14:45:00     -6.061    -0.014    17.187     0.790
   01/08/2020 15:00:00     -3.473    -0.008    17.185     0.789
   01/08/2020 15:15:00     -2.853    -0.006    17.182     0.789
   01/08/2020 15:30:00     -2.158    -0.005    17.182     0.789
   01/08/2020 15:45:00     -1.601    -0.004    17.182     0.789
   01/08/2020 16:00:00     -5.607    -0.013    17.186     0.790
   01/08/2020 16:15:00     -5.215    -0.012    17.180     0.789
   01/08/2020 16:30:00     -2.402    -0.005    17.182     0.789
   01/08/2020 16:45:00     -7.243    -0.016    17.187     0.790
   01/08/2020 17:00:00     -3.046    -0.007    17.181     0.789
   01/08/2020 17:15:00      0.167     0.000    17.184     0.789
   01/08/2020 17:30:00     -4.135    -0.009    17.190     0.790
   01/08/2020 17:45:00     -8.264    -0.019    17.188     0.790
   01/08/2020 18:00:00     -7.258    -0.016    17.183     0.789
   01/08/2020 18:15:00     -3.530    -0.008    17.182     0.789
   01/08/2020 18:30:00     -0.134    -0.000    17.185     0.790
   01/08/2020 18:45:00     -0.442    -0.001    17.189     0.790
   01/08/2020 19:00:00     -4.004    -0.009    17.191     0.790
   01/08/2020 19:15:00     -8.719    -0.020    17.189     0.790
   01/08/2020 19:30:00     -9.159    -0.021    17.185     0.789
   01/08/2020 19:45:00     -1.549    -0.003    17.182     0.789
   01/08/2020 20:00:00     -0.184    -0.000    17.187     0.790
   01/08/2020 20:15:00     -5.778    -0.013    17.192     0.790
   01/08/2020 20:30:00     -7.304    -0.016    17.189     0.790
   01/08/2020 20:45:00     -5.070    -0.011    17.183     0.789
   01/08/2020 21:00:00     -1.913    -0.004    17.182     0.789
   01/08/2020 21:15:00     -6.249    -0.014    17.186     0.790
   01/08/2020 21:30:00     13.395     0.030    17.187     0.790
   01/08/2020 21:45:00     -4.102    -0.009    17.185     0.789
   01/08/2020 22:00:00     -6.465    -0.015    17.185     0.789
   01/08/2020 22:15:00     -9.988    -0.023    17.183     0.789
   01/08/2020 22:30:00    -10.655    -0.024    17.190     0.790
   01/08/2020 22:45:00    -23.490    -0.053    17.185     0.789
   01/08/2020 23:00:00    -10.896    -0.025    17.183     0.789
   01/08/2020 23:15:00      4.080     0.009    17.186     0.790
   01/08/2020 23:30:00     -1.995    -0.005    17.194     0.790
   01/08/2020 23:45:00     -0.928    -0.002    17.191     0.790
   01/09/2020 00:00:00     -7.058    -0.016    17.190     0.790
  

  Analysis begun on:  Wed Dec 29 12:36:19 2021
  Analysis ended on:  Wed Dec 29 12:40:20 2021
  Total elapsed time: 00:04:01