
  EPA STORM WATER MANAGEMENT MODEL - VERSION 5.1 (Build 5.1.015)
  --------------------------------------------------------------

  WARNING 04: minimum elevation drop used for Conduit 28
  WARNING 04: minimum elevation drop used for Conduit 39
  WARNING 04: minimum elevation drop used for Conduit 43
  WARNING 04: minimum elevation drop used for Conduit 48
  WARNING 04: minimum elevation drop used for Conduit 76
  WARNING 04: minimum elevation drop used for Conduit 78
  WARNING 04: minimum elevation drop used for Conduit 80
  WARNING 04: minimum elevation drop used for Conduit 85
  WARNING 08: elevation drop exceeds length for Conduit 92
  WARNING 04: minimum elevation drop used for Conduit 147
  WARNING 02: maximum depth increased for Node 1
  WARNING 02: maximum depth increased for Node 2
  WARNING 02: maximum depth increased for Node 70
  WARNING 02: maximum depth increased for Node 72
  WARNING 02: maximum depth increased for Node 91
  
  *********************************************************
  NOTE: The summary statistics displayed in this report are
  based on results found at every computational time step,  
  not just on results from each reporting time step.
  *********************************************************
  
  ****************
  Analysis Options
  ****************
  Flow Units ............... CFS
  Process Models:
    Rainfall/Runoff ........ NO
    RDII ................... NO
    Snowmelt ............... NO
    Groundwater ............ NO
    Flow Routing ........... YES
    Ponding Allowed ........ YES
    Water Quality .......... NO
  Flow Routing Method ...... DYNWAVE
  Surcharge Method ......... EXTRAN
  Starting Date ............ 01/01/2020 00:00:00
  Ending Date .............. 01/09/2020 00:00:00
  Antecedent Dry Days ...... 0.0
  Report Time Step ......... 00:15:00
  Routing Time Step ........ 30.00 sec
  Variable Time Step ....... YES
  Maximum Trials ........... 10
  Number of Threads ........ 1
  Head Tolerance ........... 0.005000 ft
  
  
  **************************        Volume        Volume
  Flow Routing Continuity        acre-feet      10^6 gal
  **************************     ---------     ---------
  Dry Weather Inflow .......         0.000         0.000
  Wet Weather Inflow .......         0.000         0.000
  Groundwater Inflow .......         0.000         0.000
  RDII Inflow ..............         0.000         0.000
  External Inflow ..........     44403.232     14469.456
  External Outflow .........     13861.422      4516.952
  Flooding Loss ............     30015.540      9781.012
  Evaporation Loss .........         0.000         0.000
  Exfiltration Loss ........         0.000         0.000
  Initial Stored Volume ....        -0.306        -0.100
  Final Stored Volume ......       465.515       151.695
  Continuity Error (%) .....         0.136
  
  
  *************************
  Highest Continuity Errors
  *************************
  Node 3 (26.34%)
  Node 87 (2.80%)
  Node 84 (2.76%)
  Node 66 (2.07%)
  Node 4 (2.05%)
  
  
  ***************************
  Time-Step Critical Elements
  ***************************
  Link 99 (1346.28%)
  Link 94 (756.36%)
  Link 15 (646.90%)
  Link 6 (539.87%)
  Link 103 (432.13%)
  
  
  ********************************
  Highest Flow Instability Indexes
  ********************************
  Link 20 (99)
  Link 39 (94)
  Link 19 (90)
  Link 21 (88)
  Link 48 (88)
  
  
  *************************
  Routing Time Step Summary
  *************************
  Minimum Time Step           :     0.51 sec
  Average Time Step           :    12.22 sec
  Maximum Time Step           :    30.00 sec
  Percent in Steady State     :    94.79
  Average Iterations per Step :     7.75
  Percent Not Converging      :  1984.66
  Time Step Frequencies       :
     30.000 -  3.817 sec      :    99.97 %
      3.817 -  0.486 sec      :     0.03 %
      0.486 -  0.062 sec      :     0.00 %
      0.062 -  0.008 sec      :     0.00 %
      0.008 -  0.001 sec      :     0.00 %
  
  
  ******************
  Node Depth Summary
  ******************
  
  ---------------------------------------------------------------------------------
                                 Average  Maximum  Maximum  Time of Max    Reported
                                   Depth    Depth      HGL   Occurrence   Max Depth
  Node                 Type         Feet     Feet     Feet  days hr:min        Feet
  ---------------------------------------------------------------------------------
  1                    JUNCTION     0.00     0.00    10.01     0  00:00        0.00
  2                    JUNCTION     0.00     0.00     8.99     7  14:00        0.00
  3                    JUNCTION    11.81    11.81     8.59     7  15:34       11.81
  4                    JUNCTION    10.15    10.15     8.59     7  15:32       10.15
  5                    JUNCTION     0.00     0.00     8.59     7  17:49        0.00
  6                    JUNCTION     4.62     4.78     6.45     7  14:01        4.74
  7                    JUNCTION     8.55     8.72     6.46     7  20:11        8.66
  8                    JUNCTION    54.28    54.50     6.51     7  20:10       54.46
  9                    JUNCTION    54.25    54.50     6.54     7  20:10       54.43
  10                   JUNCTION    82.16    82.48     6.61     7  20:10       82.33
  11                   JUNCTION    92.11    92.57     6.76     7  20:10       92.26
  12                   JUNCTION    24.73    25.29     6.86     7  20:10       24.97
  13                   JUNCTION    18.10    18.67     6.87     7  20:10       18.39
  14                   JUNCTION    17.99    18.57     6.88     7  20:10       18.28
  15                   JUNCTION    30.79    31.26     6.78     7  20:10       31.03
  16                   JUNCTION    14.23    14.66     6.74     7  20:10       14.49
  19                   JUNCTION    25.68    25.85     7.05     7  21:38       25.75
  20                   JUNCTION    30.68    30.81     7.01     7  21:38       30.75
  21                   JUNCTION    27.88    28.00     7.00     7  21:38       27.93
  22                   JUNCTION    19.38    19.45     6.95     7  14:44       19.44
  23                   JUNCTION    12.08    12.13     6.93     7  14:27       12.11
  24                   JUNCTION     0.38     0.42     6.92     7  14:20        0.41
  25                   JUNCTION     0.19     0.20     6.50     7  14:21        0.20
  26                   JUNCTION    17.89    18.04     6.44     7  14:00       18.02
  27                   JUNCTION    18.19    18.30     6.40     7  14:00       18.29
  28                   JUNCTION    14.29    14.37     6.37     7  14:00       14.37
  29                   JUNCTION    14.29    14.36     6.36     7  14:00       14.36
  30                   JUNCTION    27.99    28.07     6.37     7  20:15       28.07
  31                   JUNCTION    28.09    28.18     6.38     7  20:15       28.17
  32                   JUNCTION    53.89    54.01     6.41     7  14:05       53.98
  33                   JUNCTION    50.79    50.91     6.41     7  20:16       50.89
  34                   JUNCTION    17.99    18.11     6.41     7  14:05       18.07
  35                   JUNCTION     0.00     0.00    21.17     0  00:00        0.00
  36                   JUNCTION     1.58     1.62     6.92     7  20:26        1.61
  37                   JUNCTION     1.48     1.52     6.92     7  14:30        1.52
  38                   JUNCTION    19.88    19.91     6.91     7  14:34       19.90
  39                   JUNCTION    20.18    20.24     6.94     7  14:49       20.21
  40                   JUNCTION    41.08    41.18     6.98     7  14:27       41.13
  41                   JUNCTION    41.08    41.19     6.99     7  19:52       41.14
  42                   JUNCTION    68.38    68.49     6.99     8  00:00       68.49
  43                   JUNCTION    71.78    71.88     6.98     8  00:00       71.88
  44                   JUNCTION    33.08    33.13     6.93     7  14:34       33.11
  45                   JUNCTION    33.08    33.12     6.92     7  14:33       33.11
  46                   JUNCTION    23.28    23.36     6.96     7  21:01       23.34
  47                   JUNCTION    23.38    23.48     6.98     7  14:15       23.46
  48                   JUNCTION    34.68    34.78     6.98     7  14:15       34.76
  49                   JUNCTION    21.18    21.29     6.99     7  14:15       21.27
  50                   JUNCTION    21.18    21.30     7.00     7  15:11       21.25
  51                   JUNCTION    17.38    17.45     6.95     7  14:31       17.43
  52                   JUNCTION     3.88     3.93     6.93     7  14:32        3.92
  53                   JUNCTION     0.00     0.00   -22.10     0  00:00        0.00
  54                   JUNCTION     0.00     0.00    -0.90     0  00:00        0.00
  55                   JUNCTION     0.00     0.00     0.00     0  00:00        0.00
  56                   JUNCTION     0.00     0.00   -13.70     0  00:00        0.00
  57                   JUNCTION     0.00     0.00   -13.20     0  00:00        0.00
  58                   JUNCTION     0.00     0.00   -20.50     0  00:00        0.00
  59                   JUNCTION     0.00     0.00   -20.60     0  00:00        0.00
  60                   JUNCTION     0.00     0.00     7.19     0  00:00        0.00
  61                   JUNCTION     0.00     0.00    12.80     0  00:00        0.00
  62                   JUNCTION     0.00     0.00    15.00     0  00:00        0.00
  63                   JUNCTION     0.00     0.00    22.00     0  00:00        0.00
  64                   JUNCTION     0.00     0.00    18.00     0  00:00        0.00
  65                   JUNCTION     0.00     0.00    11.00     0  00:00        0.00
  66                   JUNCTION     9.29     9.38     6.38     7  20:15        9.37
  67                   JUNCTION    11.99    12.06     6.36     7  20:15       12.05
  70                   JUNCTION    32.29    32.38     6.38     7  20:16       32.36
  71                   JUNCTION    17.48    17.58     6.39     7  20:16       17.56
  72                   JUNCTION     0.00     0.00   -16.30     0  00:00        0.00
  73                   JUNCTION     0.00     0.00   -17.00     0  00:00        0.00
  74                   JUNCTION     0.00     0.00    -5.00     0  00:00        0.00
  75                   JUNCTION     0.00     0.00   -11.90     0  00:00        0.00
  76                   JUNCTION     0.00     0.00    -3.00     0  00:00        0.00
  77                   JUNCTION     0.00     0.00    -6.25     0  00:00        0.00
  78                   JUNCTION     0.00     0.00   -19.70     0  00:00        0.00
  79                   JUNCTION     0.00     0.00   -19.70     0  00:00        0.00
  80                   JUNCTION     0.00     0.00   -12.60     0  00:00        0.00
  81                   JUNCTION     0.00     0.00   -12.60     0  00:00        0.00
  82                   JUNCTION     0.00     0.00    -5.00     0  00:00        0.00
  83                   JUNCTION    22.98    23.09     6.99     7  14:47       23.05
  84                   JUNCTION    22.98    23.09     6.99     7  19:18       23.04
  85                   JUNCTION    50.58    50.67     6.97     7  20:36       50.63
  86                   JUNCTION    58.18    58.26     6.96     7  19:17       58.25
  87                   JUNCTION    46.88    46.93     6.93     7  19:18       46.92
  88                   JUNCTION    43.88    43.95     6.95     7  14:24       43.92
  89                   JUNCTION    43.88    43.96     6.96     7  14:12       43.94
  90                   JUNCTION    29.89    29.96     6.96     7  15:11       29.95
  91                   JUNCTION    11.68    11.75     6.95     7  19:05       11.72
  92                   JUNCTION     7.69     7.75     6.95     7  19:55        7.73
  18                   JUNCTION     0.00     0.00   -16.30     0  00:00        0.00
  100                  JUNCTION     0.00     0.00   -28.62     0  00:00        0.00
  102                  JUNCTION     0.00     0.00   -25.64     0  00:00        0.00
  103                  JUNCTION     0.00     0.00   -22.38     0  00:00        0.00
  104                  JUNCTION     0.00     0.00   -22.37     0  00:00        0.00
  105                  JUNCTION     0.00     0.00   -20.44     0  00:00        0.00
  106                  JUNCTION     0.00     0.00   -12.12     0  00:00        0.00
  107                  JUNCTION     0.00     0.00   -14.89     0  00:00        0.00
  108                  JUNCTION     0.00     0.00    -6.80     0  00:00        0.00
  109                  JUNCTION     0.00     0.00   -20.88     0  00:00        0.00
  110                  JUNCTION     0.00     0.00   -20.91     0  00:00        0.00
  111                  JUNCTION     0.00     0.00   -20.98     0  00:00        0.00
  112                  JUNCTION     0.00     0.00   -21.00     0  00:00        0.00
  113                  JUNCTION     0.00     0.00   -80.80     0  00:00        0.00
  114                  JUNCTION     0.00     0.00   -83.18     0  00:00        0.00
  115                  JUNCTION     0.00     0.00   -71.75     0  00:00        0.00
  116                  JUNCTION     0.00     0.00   -71.87     0  00:00        0.00
  117                  JUNCTION     0.00     0.00   -98.50     0  00:00        0.00
  118                  JUNCTION     0.00     0.00   -22.98     0  00:00        0.00
  119                  JUNCTION     0.00     0.00   -20.15     0  00:00        0.00
  120                  JUNCTION     0.00     0.00   -17.42     0  00:00        0.00
  121                  JUNCTION     0.00     0.00    -3.19     0  00:00        0.00
  122                  JUNCTION     0.00     0.00    -3.43     0  00:00        0.00
  123                  JUNCTION     0.00     0.00   -10.64     0  00:00        0.00
  124                  JUNCTION     0.00     0.00    -6.50     0  00:00        0.00
  125                  JUNCTION     0.00     0.00    -7.20     0  00:00        0.00
  126                  JUNCTION     0.00     0.00   -19.38     0  00:00        0.00
  127                  JUNCTION     0.00     0.00   -11.21     0  00:00        0.00
  128                  JUNCTION     0.00     0.00   -11.70     0  00:00        0.00
  129                  JUNCTION     0.00     0.00   -14.32     0  00:00        0.00
  130                  JUNCTION     0.00     0.00    -5.69     0  00:00        0.00
  131                  JUNCTION     0.00     0.00    31.65     0  00:00        0.00
  132                  JUNCTION     0.00     0.00    31.36     0  00:00        0.00
  133                  JUNCTION     0.00     0.00    40.24     0  00:00        0.00
  134                  JUNCTION     0.00     0.00    44.72     0  00:00        0.00
  135                  JUNCTION     0.00     0.00    44.62     0  00:00        0.00
  136                  JUNCTION     0.00     0.00    44.35     0  00:00        0.00
  137                  JUNCTION     0.00     0.00    34.51     0  00:00        0.00
  138                  JUNCTION     0.00     0.00    52.23     0  00:00        0.00
  139                  JUNCTION     0.00     0.00    49.93     0  00:00        0.00
  140                  JUNCTION     0.00     0.00    45.20     0  00:00        0.00
  141                  JUNCTION     0.00     0.00    49.13     0  00:00        0.00
  142                  JUNCTION     0.00     0.00    40.05     0  00:00        0.00
  143                  JUNCTION     0.00     0.00    39.90     0  00:00        0.00
  148                  JUNCTION     0.00     0.00   -26.26     0  00:00        0.00
  68                   OUTFALL      0.00     0.00     6.50     0  00:00        0.00
  69                   OUTFALL      0.00     0.00     5.00     0  00:00        0.00
  93                   OUTFALL      0.00     0.00    13.89     0  00:00        0.00
  94                   OUTFALL      0.00     0.00    10.51     0  00:00        0.00
  95                   OUTFALL      0.08     0.08    12.78     8  00:00        0.08
  96                   OUTFALL      0.00     0.00    31.60     0  00:00        0.00
  97                   OUTFALL      0.00     0.00    17.55     0  00:00        0.00
  98                   OUTFALL      0.00     0.00    11.00     0  00:00        0.00
  99                   OUTFALL      0.24     0.70     6.80     7  22:58        0.53
  101                  OUTFALL      0.00     0.00    11.89     0  00:00        0.00
  144                  OUTFALL      0.00     0.00    32.22     0  00:00        0.00
  145                  OUTFALL      0.00     0.00     8.00     0  00:00        0.00
  146                  OUTFALL      0.00     0.00    39.90     0  00:00        0.00
  147                  OUTFALL      0.00     0.00    15.00     0  00:00        0.00
  
  
  *******************
  Node Inflow Summary
  *******************
  
  -------------------------------------------------------------------------------------------------
                                  Maximum  Maximum                  Lateral       Total        Flow
                                  Lateral    Total  Time of Max      Inflow      Inflow     Balance
                                   Inflow   Inflow   Occurrence      Volume      Volume       Error
  Node                 Type           CFS      CFS  days hr:min    10^6 gal    10^6 gal     Percent
  -------------------------------------------------------------------------------------------------
  1                    JUNCTION      0.00     0.00     0  00:00           0           0       0.000 gal
  2                    JUNCTION      0.00     0.00     0  00:00           0       0.709       0.022
  3                    JUNCTION      0.00     0.05     7  15:33           0        52.1      35.750
  4                    JUNCTION      0.00     0.05     7  19:15           0          61       2.098
  5                    JUNCTION      0.00     0.00     7  19:08           0        35.4       0.544
  6                    JUNCTION      0.00    83.27     7  15:17           0    1.03e+03       0.079
  7                    JUNCTION      0.00    57.61     7  19:17           0         991       0.045
  8                    JUNCTION      0.00    66.72     7  15:16           0    1.07e+03       0.078
  9                    JUNCTION      0.00    56.94     7  16:12           0     1.1e+03      -0.015
  10                   JUNCTION      0.00    55.92     7  18:05           0    1.11e+03       0.334
  11                   JUNCTION      0.00    53.02     7  15:29           0    1.02e+03       0.377
  12                   JUNCTION      0.00    51.72     7  15:29           0    1.01e+03      -0.118
  13                   JUNCTION      0.00    56.66     7  15:28           0    1.01e+03      -0.079
  14                   JUNCTION      0.00    63.54     7  18:04           0    1.01e+03       0.224
  15                   JUNCTION      0.00    78.20     7  14:12           0    1.01e+03       0.390
  16                   JUNCTION      0.00   126.82     7  19:15           0    1.03e+03      -0.929
  19                   JUNCTION      0.00     6.70     7  16:10           0         481       0.823
  20                   JUNCTION      0.00    32.24     7  20:44           0         490       1.014
  21                   JUNCTION      0.00    18.47     7  21:32           0         495       0.690
  22                   JUNCTION      0.00    21.40     7  14:26           0         499       0.674
  23                   JUNCTION      0.00    25.83     7  14:26           0         566       0.188
  24                   JUNCTION      0.00    28.43     7  16:37           0    1.45e+03      -0.032
  25                   JUNCTION      0.00    10.05     7  14:20           0         963       0.027
  26                   JUNCTION      0.00   109.90     7  20:12           0    1.41e+03       0.292
  27                   JUNCTION      0.00   105.72     7  20:13           0         763       0.415
  28                   JUNCTION      0.00   118.79     7  20:13           0         775       0.337
  29                   JUNCTION      0.00   112.36     7  20:13           0     1.4e+03       0.195
  30                   JUNCTION      0.00    94.09     7  15:24           0    1.31e+03       0.574
  31                   JUNCTION      0.00    89.93     7  23:42           0    1.97e+03       0.321
  32                   JUNCTION      0.00    26.16     7  22:11           0    1.69e+03       0.172
  33                   JUNCTION      0.00    24.65     7  22:11           0    1.69e+03       0.175
  34                   JUNCTION      0.00    23.02     7  22:12           0    1.79e+03       0.160
  35                   JUNCTION      0.00     0.00     0  00:00           0           0       0.000 gal
  36                   JUNCTION      0.00    15.01     7  21:49           0         152       0.307
  37                   JUNCTION      0.00    18.11     7  14:33           0         277       0.138
  38                   JUNCTION      0.00    39.05     7  16:09           0    1.52e+03       0.393
  39                   JUNCTION      0.00    31.17     7  20:46           0    1.42e+03       0.333
  40                   JUNCTION      0.00    37.74     7  17:42           0    1.55e+03       0.722
  41                   JUNCTION      0.00    17.31     7  14:44           0    1.43e+03       0.214
  42                   JUNCTION      0.00    12.22     7  16:56           0    1.44e+03       0.206
  43                   JUNCTION      0.00    11.65     7  16:56           0    1.44e+03       0.178
  44                   JUNCTION      0.00    20.04     7  16:56           0    1.44e+03       0.190
  45                   JUNCTION      0.00    16.89     7  14:50           0    1.44e+03       0.288
  46                   JUNCTION      0.00    12.40     7  16:53           0    1.44e+03       0.230
  47                   JUNCTION      0.00    12.24     7  16:53           0    1.44e+03       0.132
  48                   JUNCTION      0.00    12.06     7  21:17           0    1.45e+03       0.147
  49                   JUNCTION      0.00    15.40     7  14:26           0    1.45e+03       0.201
  50                   JUNCTION      0.00    18.89     7  17:08           0    1.45e+03       0.213
  51                   JUNCTION      0.00    16.13     7  16:53           0    6.48e+03       0.033
  52                   JUNCTION      0.00    13.21     7  15:50           0    1.25e+04       0.003
  53                   JUNCTION      0.00     0.00     0  00:00           0           0       0.000 gal
  54                   JUNCTION      0.00     0.00     0  00:00           0           0       0.000 gal
  55                   JUNCTION      0.00     0.00     0  00:00           0           0       0.000 gal
  56                   JUNCTION      0.00     0.00     0  00:00           0           0       0.000 gal
  57                   JUNCTION      0.00     0.00     0  00:00           0           0       0.000 gal
  58                   JUNCTION      0.00     0.00     0  00:00           0           0       0.000 gal
  59                   JUNCTION      0.00     0.00     0  00:00           0           0       0.000 gal
  60                   JUNCTION      0.00     0.00     0  00:00           0           0       0.000 gal
  61                   JUNCTION      0.00     0.00     0  00:00           0           0       0.000 gal
  62                   JUNCTION      0.00     0.00     0  00:00           0           0       0.000 gal
  63                   JUNCTION      0.00     0.00     0  00:00           0           0       0.000 gal
  64                   JUNCTION      0.00     0.00     0  00:00           0           0       0.000 gal
  65                   JUNCTION      0.00     0.00     0  00:00           0           0       0.000 gal
  66                   JUNCTION      0.00    35.10     7  15:19           0         113       2.114
  67                   JUNCTION      0.00    67.18     7  20:14           0    1.04e+03       0.281
  70                   JUNCTION      0.00    40.99     7  18:33           0    1.55e+03       0.313
  71                   JUNCTION      0.00    31.25     7  14:53           0        31.6       8.956
  72                   JUNCTION      0.00     0.00     0  00:00           0           0       0.000 gal
  73                   JUNCTION      0.00     0.00     0  00:00           0           0       0.000 gal
  74                   JUNCTION      0.00     0.00     0  00:00           0           0       0.000 gal
  75                   JUNCTION      0.00     0.00     0  00:00           0           0       0.000 gal
  76                   JUNCTION      0.00     0.00     0  00:00           0           0       0.000 gal
  77                   JUNCTION      0.00     0.00     0  00:00           0           0       0.000 gal
  78                   JUNCTION      0.00     0.00     0  00:00           0           0       0.000 gal
  79                   JUNCTION      0.00     0.00     0  00:00           0           0       0.000 gal
  80                   JUNCTION      0.00     0.00     0  00:00           0           0       0.000 gal
  81                   JUNCTION      0.00     0.00     0  00:00           0           0       0.000 gal
  82                   JUNCTION      0.00     0.00     0  00:00           0           0       0.000 gal
  83                   JUNCTION      0.00    45.50     7  19:19           0         238       1.833
  84                   JUNCTION      0.00    48.56     7  21:11           0         233       2.842
  85                   JUNCTION      0.00    44.23     7  16:10           0         230       1.007
  86                   JUNCTION      0.00    49.84     7  16:10           0         228       0.848
  87                   JUNCTION      0.00    68.74     7  19:12           0         218       2.877
  88                   JUNCTION      0.00    57.82     7  16:06           0         221       2.100
  89                   JUNCTION      0.00    28.34     7  16:11           0         227       1.188
  90                   JUNCTION      0.00    27.38     7  14:27           0         225       2.079
  91                   JUNCTION      0.00    24.60     7  19:06           0         200       0.374
  92                   JUNCTION      0.00    15.05     7  19:58           0         111       0.672
  18                   JUNCTION      0.00     0.00     0  00:00           0           0       0.000 gal
  100                  JUNCTION      0.00     0.00     0  00:00           0           0       0.000 gal
  102                  JUNCTION      0.00     0.00     0  00:00           0           0       0.000 gal
  103                  JUNCTION      0.00     0.00     0  00:00           0           0       0.000 gal
  104                  JUNCTION      0.00     0.00     0  00:00           0           0       0.000 gal
  105                  JUNCTION      0.00     0.00     0  00:00           0           0       0.000 gal
  106                  JUNCTION      0.00     0.00     0  00:00           0           0       0.000 gal
  107                  JUNCTION      0.00     0.00     0  00:00           0           0       0.000 gal
  108                  JUNCTION      0.00     0.00     0  00:00           0           0       0.000 gal
  109                  JUNCTION      0.00     0.00     0  00:00           0           0       0.000 gal
  110                  JUNCTION      0.00     0.00     0  00:00           0           0       0.000 gal
  111                  JUNCTION      0.00     0.00     0  00:00           0           0       0.000 gal
  112                  JUNCTION      0.00     0.00     0  00:00           0           0       0.000 gal
  113                  JUNCTION      0.00     0.00     0  00:00           0           0       0.000 gal
  114                  JUNCTION      0.00     0.00     0  00:00           0           0       0.000 gal
  115                  JUNCTION      0.00     0.00     0  00:00           0           0       0.000 gal
  116                  JUNCTION      0.00     0.00     0  00:00           0           0       0.000 gal
  117                  JUNCTION      0.00     0.00     0  00:00           0           0       0.000 gal
  118                  JUNCTION      0.00     0.00     0  00:00           0           0       0.000 gal
  119                  JUNCTION      0.00     0.00     0  00:00           0           0       0.000 gal
  120                  JUNCTION      0.00     0.00     0  00:00           0           0       0.000 gal
  121                  JUNCTION      0.00     0.00     0  00:00           0           0       0.000 gal
  122                  JUNCTION      0.00     0.00     0  00:00           0           0       0.000 gal
  123                  JUNCTION      0.00     0.00     0  00:00           0           0       0.000 gal
  124                  JUNCTION      0.00     0.00     0  00:00           0           0       0.000 gal
  125                  JUNCTION      0.00     0.00     0  00:00           0           0       0.000 gal
  126                  JUNCTION      0.00     0.00     0  00:00           0           0       0.000 gal
  127                  JUNCTION      0.00     0.00     0  00:00           0           0       0.000 gal
  128                  JUNCTION      0.00     0.00     0  00:00           0           0       0.000 gal
  129                  JUNCTION      0.00     0.00     0  00:00           0           0       0.000 gal
  130                  JUNCTION      0.00     0.00     0  00:00           0           0       0.000 gal
  131                  JUNCTION      0.00     0.00     0  00:00           0           0       0.000 gal
  132                  JUNCTION      0.00     0.00     0  00:00           0           0       0.000 gal
  133                  JUNCTION      0.00     0.00     0  00:00           0           0       0.000 gal
  134                  JUNCTION      0.00     0.00     0  00:00           0           0       0.000 gal
  135                  JUNCTION      0.00     0.00     0  00:00           0           0       0.000 gal
  136                  JUNCTION      0.00     0.00     0  00:00           0           0       0.000 gal
  137                  JUNCTION      0.00     0.00     0  00:00           0           0       0.000 gal
  138                  JUNCTION      0.00     0.00     0  00:00           0           0       0.000 gal
  139                  JUNCTION      0.00     0.00     0  00:00           0           0       0.000 gal
  140                  JUNCTION      0.00     0.00     0  00:00           0           0       0.000 gal
  141                  JUNCTION      0.00     0.00     0  00:00           0           0       0.000 gal
  142                  JUNCTION      0.00     0.00     0  00:00           0           0       0.000 gal
  143                  JUNCTION      0.00     0.00     0  00:00           0           0       0.000 gal
  148                  JUNCTION      0.00     0.00     0  00:00           0           0       0.000 gal
  68                   OUTFALL       0.00     0.00     0  00:00           0           0       0.000 gal
  69                   OUTFALL       0.00     0.00     0  00:00           0           0       0.000 gal
  93                   OUTFALL       0.00     0.00     0  00:00           0           0       0.000 gal
  94                   OUTFALL       0.00     0.00     0  00:00           0    3.39e+03       0.000
  95                   OUTFALL       0.00     9.24     8  00:00           0          42       0.000
  96                   OUTFALL       0.00     0.00     0  00:00           0           0       0.000 gal
  97                   OUTFALL       0.00     0.00     0  00:00           0           0       0.000 gal
  98                   OUTFALL       0.00     0.00     0  00:00           0         102       0.000
  99                   OUTFALL       0.00   157.99     7  22:58           0    1.06e+03       0.000
  101                  OUTFALL       0.00     0.00     0  00:00           0           0       0.000 gal
  144                  OUTFALL       0.00     0.00     0  00:00           0           0       0.000 gal
  145                  OUTFALL       0.00     0.00     0  00:00           0           0       0.000 gal
  146                  OUTFALL       0.00     0.00     0  00:00           0           0       0.000 gal
  147                  OUTFALL       0.00     0.00     0  00:00           0           0       0.000 gal
  
  
  **********************
  Node Surcharge Summary
  **********************
  
  Surcharging occurs when water rises above the top of the highest conduit.
  ---------------------------------------------------------------------
                                               Max. Height   Min. Depth
                                   Hours       Above Crown    Below Rim
  Node                 Type      Surcharged           Feet         Feet
  ---------------------------------------------------------------------
  8                    JUNCTION       10.00         28.503        5.497
  9                    JUNCTION       10.00         28.501        5.499
  10                   JUNCTION       10.00         62.980        2.520
  11                   JUNCTION       10.00         73.069        2.431
  12                   JUNCTION       10.00          5.787        4.713
  13                   JUNCTION       10.00          1.672        6.328
  14                   JUNCTION       10.00          1.565        6.435
  15                   JUNCTION       10.00         14.259        8.741
  19                   JUNCTION       10.00         10.553        4.147
  20                   JUNCTION       10.00         12.812        9.188
  21                   JUNCTION       10.00         10.000       12.000
  22                   JUNCTION       10.00          3.454       20.546
  32                   JUNCTION       10.00         37.911       25.989
  33                   JUNCTION       10.00         34.809       29.091
  39                   JUNCTION       10.00          0.938       19.762
  40                   JUNCTION       10.00         21.880       18.820
  41                   JUNCTION       10.00         24.190       18.810
  42                   JUNCTION       10.00         51.490       11.510
  43                   JUNCTION       10.00         54.880        8.120
  46                   JUNCTION       10.00          6.665       26.635
  47                   JUNCTION       10.00          6.780       26.520
  48                   JUNCTION       10.00         19.082       25.218
  49                   JUNCTION       10.00          5.086       28.714
  50                   JUNCTION       10.00          5.105       28.695
  51                   JUNCTION       10.00          1.250       12.550
  83                   JUNCTION       10.00          8.093       11.907
  84                   JUNCTION       10.00          6.488       11.912
  85                   JUNCTION       10.00         34.074       19.326
  86                   JUNCTION       10.00         41.659       11.741
  89                   JUNCTION       10.00         27.362        6.038
  90                   JUNCTION       10.00         13.357       10.043
  
  
  *********************
  Node Flooding Summary
  *********************
  
  No nodes were flooded.
  
  
  ***********************
  Outfall Loading Summary
  ***********************
  
  -----------------------------------------------------------
                         Flow       Avg       Max       Total
                         Freq      Flow      Flow      Volume
  Outfall Node           Pcnt       CFS       CFS    10^6 gal
  -----------------------------------------------------------
  68                     0.00      0.00      0.00       0.000
  69                     0.00      0.00      0.00       0.000
  93                     0.00      0.00      0.00       0.000
  94                     0.00      0.00      0.00    3387.853
  95                   100.00      9.22      9.24      42.021
  96                     0.00      0.00      0.00       0.000
  97                     0.00      0.00      0.00       0.000
  98                     0.00      0.00      0.00     102.258
  99                    99.12     33.73    157.99    1056.909
  101                    0.00      0.00      0.00       0.000
  144                    0.00      0.00      0.00       0.000
  145                    0.00      0.00      0.00       0.000
  146                    0.00      0.00      0.00       0.000
  147                    0.00      0.00      0.00       0.000
  -----------------------------------------------------------
  System                14.22     42.96    167.22    4589.041
  
  
  ********************
  Link Flow Summary
  ********************
  
  -----------------------------------------------------------------------------
                                 Maximum  Time of Max   Maximum    Max/    Max/
                                  |Flow|   Occurrence   |Veloc|    Full    Full
  Link                 Type          CFS  days hr:min    ft/sec    Flow   Depth
  -----------------------------------------------------------------------------
  1                    CONDUIT      0.00     0  00:00      0.00    0.00    0.00
  2                    CONDUIT      0.00     0  00:00      0.00    0.00    0.37
  3                    CONDUIT      0.05     7  15:33      0.00    0.00    0.78
  4                    CONDUIT      0.00     7  19:08      0.00    0.00    0.32
  5                    CONDUIT      0.00     7  17:49      0.00    0.00    0.15
  6                    CONDUIT     83.27     7  15:17      0.38    0.01    0.42
  7                    CONDUIT     57.61     7  19:17      0.19    0.00    0.72
  8                    CONDUIT     66.72     7  15:16      0.08    0.03    1.00
  9                    CONDUIT     54.22     7  15:16      0.15    0.00    1.00
  10                   CONDUIT     55.92     7  18:05      0.16    0.01    1.00
  11                   CONDUIT     52.86     7  15:16      0.15    0.00    1.00
  12                   CONDUIT     56.66     7  15:28      0.11    0.00    1.00
  13                   CONDUIT     58.77     7  14:12      0.12    0.05    1.00
  14                   CONDUIT     78.20     7  14:12      0.16    0.01    1.00
  15                   CONDUIT     96.57     7  23:58      0.22    0.00    0.93
  19                   CONDUIT      6.72     7  21:20      0.01    0.00    1.00
  20                   CONDUIT     32.24     7  20:44      0.04    0.00    1.00
  21                   CONDUIT     21.40     7  14:26      0.04    0.00    1.00
  22                   CONDUIT     21.36     7  14:26      0.04    0.00    0.90
  23                   CONDUIT     18.93     7  21:41      0.15    0.00    0.33
  24                   CONDUIT     10.05     7  14:20      0.79    0.00    0.02
  25                   CONDUIT      9.60     7  14:22      0.04    0.00    0.30
  26                   CONDUIT    105.72     7  20:13      0.26    0.05    0.77
  27                   CONDUIT    118.79     7  20:13      0.18    0.01    0.86
  28                   CONDUIT    112.36     7  20:13      0.14    0.27    0.80
  29                   CONDUIT     51.60     7  22:32      0.13    0.00    0.94
  30                   CONDUIT     94.09     7  15:24      0.06    0.01    0.94
  31                   CONDUIT     26.16     7  22:11      0.06    0.00    1.00
  32                   CONDUIT     24.65     7  22:11      0.06    0.00    1.00
  33                   CONDUIT     23.15     7  14:00      0.05    0.00    1.00
  34                   CONDUIT      0.00     0  00:00      0.00    0.00    0.05
  35                   CONDUIT     18.11     7  14:33      0.19    0.00    0.06
  36                   CONDUIT     18.46     7  15:51      0.06    0.00    0.36
  37                   CONDUIT     34.64     7  18:53      0.04    0.00    1.00
  38                   CONDUIT     31.17     7  20:46      0.07    0.00    1.00
  39                   CONDUIT     17.40     7  17:20      0.02    0.05    1.00
  40                   CONDUIT     13.54     7  16:56      0.03    0.00    1.00
  41                   CONDUIT     12.22     7  16:56      0.05    0.01    1.00
  42                   CONDUIT     11.65     7  16:56      0.05    0.00    1.00
  43                   CONDUIT     20.04     7  16:56      0.04    0.12    0.98
  44                   CONDUIT     11.59     7  16:53      0.03    0.00    1.00
  45                   CONDUIT     12.40     7  16:53      0.03    0.02    1.00
  46                   CONDUIT     12.24     7  16:53      0.03    0.00    1.00
  47                   CONDUIT     12.06     7  21:17      0.03    0.00    1.00
  48                   CONDUIT     18.89     7  17:08      0.02    0.06    1.00
  49                   CONDUIT     12.65     7  15:50      0.03    0.00    1.00
  50                   CONDUIT     16.13     7  16:53      0.05    0.00    0.62
  51                   CONDUIT      0.00     0  00:00      0.00    0.00    0.00
  52                   CONDUIT      0.00     0  00:00      0.00    0.00    0.00
  53                   CONDUIT      0.00     0  00:00      0.00    0.00    0.00
  54                   CONDUIT      0.00     0  00:00      0.00    0.00    0.00
  55                   CONDUIT      0.00     0  00:00      0.00    0.00    0.00
  56                   CONDUIT      0.00     0  00:00      0.00    0.00    0.00
  57                   CONDUIT      0.00     0  00:00      0.00    0.00    0.00
  58                   CONDUIT      0.00     0  00:00      0.00    0.00    0.00
  59                   CONDUIT      0.00     0  00:00      0.00    0.00    0.00
  60                   CONDUIT      0.00     0  00:00      0.00    0.00    0.00
  61                   CONDUIT      0.00     0  00:00      0.00    0.00    0.00
  62                   CONDUIT      0.00     0  00:00      0.00    0.00    0.00
  63                   CONDUIT      0.00     0  00:00      0.00    0.00    0.30
  64                   CONDUIT     35.10     7  15:19      0.04    0.00    0.64
  65                   CONDUIT     38.69     7  22:16      0.09    0.00    0.85
  67                   CONDUIT     38.06     7  19:21      0.08    0.00    0.87
  68                   CONDUIT     40.99     7  18:33      0.04    0.00    1.00
  69                   CONDUIT      0.00     0  00:00      0.00    0.00    0.00
  70                   CONDUIT      0.00     0  00:00      0.00    0.00    0.00
  71                   CONDUIT      0.00     0  00:00      0.00    0.00    0.00
  72                   CONDUIT      0.00     0  00:00      0.00    0.00    0.00
  73                   CONDUIT      0.00     0  00:00      0.00    0.00    0.00
  74                   CONDUIT      0.00     0  00:00      0.00    0.00    0.00
  75                   CONDUIT      0.00     0  00:00      0.00    0.00    0.00
  76                   CONDUIT      0.00     0  00:00      0.00    0.00    0.00
  77                   CONDUIT      0.00     0  00:00      0.00    0.00    0.00
  78                   CONDUIT      0.00     0  00:00      0.00    0.00    0.00
  79                   CONDUIT      0.00     0  00:00      0.00    0.00    0.00
  80                   CONDUIT     45.50     7  19:19      0.03    0.08    1.00
  81                   CONDUIT     48.56     7  21:11      0.10    0.00    1.00
  82                   CONDUIT     44.23     7  16:10      0.09    0.00    1.00
  83                   CONDUIT     49.84     7  16:10      0.10    0.00    1.00
  84                   CONDUIT     62.45     7  16:06      0.03    0.00    0.91
  85                   CONDUIT     36.29     7  15:42      0.07    0.21    1.00
  86                   CONDUIT     28.34     7  16:11      0.06    0.00    1.00
  87                   CONDUIT     27.38     7  14:27      0.06    0.00    0.85
  88                   CONDUIT     24.60     7  19:06      0.17    0.00    0.24
  89                   CONDUIT      0.00     0  00:00      0.00    0.00    0.11
  90                   CONDUIT     28.43     7  16:37      0.07    0.00    0.51
  91                   CONDUIT     32.45     7  21:34      0.02    0.00    1.00
  92                   CONDUIT      0.00     0  00:00      0.00    0.00    0.50
  93                   CONDUIT    100.94     7  20:12      0.19    0.00    0.66
  94                   CONDUIT     67.18     7  20:14      0.37    0.02    1.00
  95                   CONDUIT      0.00     0  00:00      0.00    0.00    0.00
  96                   CONDUIT      0.00     0  00:00      0.00    0.00    0.00
  97                   CONDUIT      0.00     0  00:00      0.00    0.00    0.00
  98                   CONDUIT      0.00     0  00:00      0.00    0.00    0.00
  99                   CONDUIT      0.00     0  00:00      0.00    0.00    0.10
  100                  CONDUIT      9.24     8  00:00      0.06    0.00    0.13
  101                  CONDUIT      0.00     0  00:00      0.00    0.00    0.00
  102                  CONDUIT      0.00     0  00:00      0.00    0.00    0.29
  103                  CONDUIT    157.99     7  22:58      0.73    0.01    0.38
  104                  CONDUIT      0.00     0  00:00      0.00    0.00    0.36
  17                   CONDUIT      0.00     0  00:00      0.00    0.00    0.00
  18                   CONDUIT      0.00     0  00:00      0.00    0.00    0.00
  66                   CONDUIT      0.00     0  00:00      0.00    0.00    0.00
  105                  CONDUIT      0.00     0  00:00      0.00    0.00    0.00
  106                  CONDUIT      0.00     0  00:00      0.00    0.00    0.00
  107                  CONDUIT      0.00     0  00:00      0.00    0.00    0.00
  108                  CONDUIT      0.00     0  00:00      0.00    0.00    0.00
  109                  CONDUIT      0.00     0  00:00      0.00    0.00    0.00
  110                  CONDUIT      0.00     0  00:00      0.00    0.00    0.00
  111                  CONDUIT      0.00     0  00:00      0.00    0.00    0.00
  112                  CONDUIT      0.00     0  00:00      0.00    0.00    0.00
  113                  CONDUIT      0.00     0  00:00      0.00    0.00    0.00
  114                  CONDUIT      0.00     0  00:00      0.00    0.00    0.00
  115                  CONDUIT      0.00     0  00:00      0.00    0.00    0.00
  116                  CONDUIT      0.00     0  00:00      0.00    0.00    0.00
  117                  CONDUIT      0.00     0  00:00      0.00    0.00    0.00
  118                  CONDUIT      0.00     0  00:00      0.00    0.00    0.00
  119                  CONDUIT      0.00     0  00:00      0.00    0.00    0.00
  120                  CONDUIT      0.00     0  00:00      0.00    0.00    0.00
  121                  CONDUIT      0.00     0  00:00      0.00    0.00    0.00
  122                  CONDUIT      0.00     0  00:00      0.00    0.00    0.00
  123                  CONDUIT      0.00     0  00:00      0.00    0.00    0.00
  124                  CONDUIT      0.00     0  00:00      0.00    0.00    0.00
  125                  CONDUIT      0.00     0  00:00      0.00    0.00    0.00
  126                  CONDUIT      0.00     0  00:00      0.00    0.00    0.00
  127                  CONDUIT      0.00     0  00:00      0.00    0.00    0.00
  128                  CONDUIT      0.00     0  00:00      0.00    0.00    0.00
  129                  CONDUIT      0.00     0  00:00      0.00    0.00    0.00
  130                  CONDUIT      0.00     0  00:00      0.00    0.00    0.00
  131                  CONDUIT      0.00     0  00:00      0.00    0.00    0.00
  132                  CONDUIT      0.00     0  00:00      0.00    0.00    0.00
  133                  CONDUIT      0.00     0  00:00      0.00    0.00    0.00
  134                  CONDUIT      0.00     0  00:00      0.00    0.00    0.00
  135                  CONDUIT      0.00     0  00:00      0.00    0.00    0.00
  136                  CONDUIT      0.00     0  00:00      0.00    0.00    0.00
  137                  CONDUIT      0.00     0  00:00      0.00    0.00    0.00
  138                  CONDUIT      0.00     0  00:00      0.00    0.00    0.00
  139                  CONDUIT      0.00     0  00:00      0.00    0.00    0.00
  140                  CONDUIT      0.00     0  00:00      0.00    0.00    0.00
  141                  CONDUIT      0.00     0  00:00      0.00    0.00    0.00
  142                  CONDUIT      0.00     0  00:00      0.00    0.00    0.00
  143                  CONDUIT      0.00     0  00:00      0.00    0.00    0.00
  145                  CONDUIT      0.00     0  00:00      0.00    0.00    0.00
  146                  CONDUIT      0.00     0  00:00      0.00    0.00    0.00
  147                  CONDUIT      0.00     0  00:00      0.00    0.00    0.00
  148                  CONDUIT      0.00     0  00:00      0.00    0.00    0.50
  149                  CONDUIT      0.00     0  00:00      0.00    0.00    0.00
  
  
  ***************************
  Flow Classification Summary
  ***************************
  
  -------------------------------------------------------------------------------------
                      Adjusted    ---------- Fraction of Time in Flow Class ---------- 
                       /Actual         Up    Down  Sub   Sup   Up    Down  Norm  Inlet 
  Conduit               Length    Dry  Dry   Dry   Crit  Crit  Crit  Crit  Ltd   Ctrl  
  -------------------------------------------------------------------------------------
  1                       1.00   1.00  0.00  0.00  0.00  0.00  0.00  0.00  0.00  0.00
  2                       1.00   0.00  1.00  0.00  0.00  0.00  0.00  0.00  0.05  0.00
  3                       1.00   0.00  0.00  0.00  1.00  0.00  0.00  0.00  0.00  0.00
  4                       1.00   0.00  0.00  0.00  1.00  0.00  0.00  0.00  0.03  0.00
  5                       1.16   0.00  0.99  0.00  0.01  0.00  0.00  0.00  0.05  0.00
  6                       1.00   0.00  0.00  0.00  1.00  0.00  0.00  0.00  0.00  0.00
  7                       1.00   0.00  0.00  0.00  1.00  0.00  0.00  0.00  0.00  0.00
  8                       1.00   0.00  0.00  0.00  1.00  0.00  0.00  0.00  0.00  0.00
  9                       1.00   0.00  0.00  0.00  1.00  0.00  0.00  0.00  0.00  0.00
  10                      1.00   0.00  0.00  0.00  1.00  0.00  0.00  0.00  0.00  0.00
  11                      1.00   0.00  0.00  0.00  1.00  0.00  0.00  0.00  0.00  0.00
  12                      1.00   0.00  0.00  0.00  1.00  0.00  0.00  0.00  0.00  0.00
  13                      1.00   0.00  0.00  0.00  1.00  0.00  0.00  0.00  0.00  0.00
  14                      1.00   0.00  0.00  0.00  1.00  0.00  0.00  0.00  0.00  0.00
  15                      1.12   0.00  0.00  0.00  1.00  0.00  0.00  0.00  0.00  0.00
  19                      1.00   0.00  0.00  0.00  1.00  0.00  0.00  0.00  0.00  0.00
  20                      1.00   0.00  0.00  0.00  1.00  0.00  0.00  0.00  0.00  0.00
  21                      1.00   0.00  0.00  0.00  1.00  0.00  0.00  0.00  0.00  0.00
  22                      1.00   0.00  0.00  0.00  1.00  0.00  0.00  0.00  0.00  0.00
  23                      1.00   0.00  0.00  0.00  1.00  0.00  0.00  0.00  0.00  0.00
  24                      1.00   0.00  0.00  0.00  1.00  0.00  0.00  0.00  0.00  0.00
  25                      1.49   0.00  0.00  0.00  1.00  0.00  0.00  0.00  0.05  0.00
  26                      1.00   0.00  0.00  0.00  1.00  0.00  0.00  0.00  0.00  0.00
  27                      1.00   0.00  0.00  0.00  1.00  0.00  0.00  0.00  0.00  0.00
  28                      1.00   0.00  0.00  0.00  1.00  0.00  0.00  0.00  0.00  0.00
  29                      1.00   0.00  0.00  0.00  1.00  0.00  0.00  0.00  0.00  0.00
  30                      1.00   0.00  0.00  0.00  1.00  0.00  0.00  0.00  0.00  0.00
  31                      1.00   0.00  0.00  0.00  1.00  0.00  0.00  0.00  0.00  0.00
  32                      1.00   0.00  0.00  0.00  1.00  0.00  0.00  0.00  0.00  0.00
  33                      1.00   0.00  0.00  0.00  1.00  0.00  0.00  0.00  0.00  0.00
  34                      1.00   0.00  1.00  0.00  0.00  0.00  0.00  0.00  0.00  0.00
  35                      1.00   0.00  0.00  0.00  1.00  0.00  0.00  0.00  0.00  0.00
  36                      1.00   0.00  0.00  0.00  1.00  0.00  0.00  0.00  0.00  0.00
  37                      1.00   0.00  0.00  0.00  1.00  0.00  0.00  0.00  0.00  0.00
  38                      1.00   0.00  0.00  0.00  1.00  0.00  0.00  0.00  0.00  0.00
  39                      1.00   0.00  0.00  0.00  1.00  0.00  0.00  0.00  0.00  0.00
  40                      1.00   0.00  0.00  0.00  1.00  0.00  0.00  0.00  0.00  0.00
  41                      1.00   0.00  0.00  0.00  1.00  0.00  0.00  0.00  0.00  0.00
  42                      1.00   0.00  0.00  0.00  1.00  0.00  0.00  0.00  0.00  0.00
  43                      1.00   0.00  0.00  0.00  1.00  0.00  0.00  0.00  0.00  0.00
  44                      1.00   0.00  0.00  0.00  1.00  0.00  0.00  0.00  0.00  0.00
  45                      1.00   0.00  0.00  0.00  1.00  0.00  0.00  0.00  0.00  0.00
  46                      1.03   0.00  0.00  0.00  1.00  0.00  0.00  0.00  0.00  0.00
  47                      1.00   0.00  0.00  0.00  1.00  0.00  0.00  0.00  0.00  0.00
  48                      1.00   0.00  0.00  0.00  1.00  0.00  0.00  0.00  0.00  0.00
  49                      1.00   0.00  0.00  0.00  1.00  0.00  0.00  0.00  0.00  0.00
  50                      1.00   0.00  0.00  0.00  1.00  0.00  0.00  0.00  0.00  0.00
  51                      1.00   1.00  0.00  0.00  0.00  0.00  0.00  0.00  0.00  0.00
  52                      1.00   1.00  0.00  0.00  0.00  0.00  0.00  0.00  0.00  0.00
  53                      1.00   1.00  0.00  0.00  0.00  0.00  0.00  0.00  0.00  0.00
  54                      1.00   1.00  0.00  0.00  0.00  0.00  0.00  0.00  0.00  0.00
  55                      1.00   1.00  0.00  0.00  0.00  0.00  0.00  0.00  0.00  0.00
  56                      1.00   1.00  0.00  0.00  0.00  0.00  0.00  0.00  0.00  0.00
  57                      1.00   1.00  0.00  0.00  0.00  0.00  0.00  0.00  0.00  0.00
  58                      1.00   1.00  0.00  0.00  0.00  0.00  0.00  0.00  0.00  0.00
  59                      1.00   1.00  0.00  0.00  0.00  0.00  0.00  0.00  0.00  0.00
  60                      1.00   1.00  0.00  0.00  0.00  0.00  0.00  0.00  0.00  0.00
  61                      1.00   1.00  0.00  0.00  0.00  0.00  0.00  0.00  0.00  0.00
  62                      1.04   1.00  0.00  0.00  0.00  0.00  0.00  0.00  0.00  0.00
  63                      1.00   0.00  1.00  0.00  0.00  0.00  0.00  0.00  0.00  0.00
  64                      1.00   0.00  0.00  0.00  1.00  0.00  0.00  0.00  0.00  0.00
  65                      1.00   0.00  0.00  0.00  1.00  0.00  0.00  0.00  0.00  0.00
  67                      1.00   0.00  0.00  0.00  1.00  0.00  0.00  0.00  0.00  0.00
  68                      1.95   0.00  0.00  0.00  1.00  0.00  0.00  0.00  0.00  0.00
  69                      3.49   1.00  0.00  0.00  0.00  0.00  0.00  0.00  0.00  0.00
  70                      1.00   1.00  0.00  0.00  0.00  0.00  0.00  0.00  0.00  0.00
  71                      1.63   1.00  0.00  0.00  0.00  0.00  0.00  0.00  0.00  0.00
  72                      1.00   1.00  0.00  0.00  0.00  0.00  0.00  0.00  0.00  0.00
  73                      1.00   1.00  0.00  0.00  0.00  0.00  0.00  0.00  0.00  0.00
  74                      1.00   1.00  0.00  0.00  0.00  0.00  0.00  0.00  0.00  0.00
  75                      1.00   1.00  0.00  0.00  0.00  0.00  0.00  0.00  0.00  0.00
  76                      1.00   1.00  0.00  0.00  0.00  0.00  0.00  0.00  0.00  0.00
  77                      1.00   1.00  0.00  0.00  0.00  0.00  0.00  0.00  0.00  0.00
  78                      1.00   1.00  0.00  0.00  0.00  0.00  0.00  0.00  0.00  0.00
  79                      1.00   1.00  0.00  0.00  0.00  0.00  0.00  0.00  0.00  0.00
  80                      1.00   0.00  0.00  0.00  1.00  0.00  0.00  0.00  0.00  0.00
  81                      1.00   0.00  0.00  0.00  1.00  0.00  0.00  0.00  0.00  0.00
  82                      1.00   0.00  0.00  0.00  1.00  0.00  0.00  0.00  0.00  0.00
  83                      1.00   0.00  0.00  0.00  1.00  0.00  0.00  0.00  0.00  0.00
  84                      1.00   0.00  0.00  0.00  1.00  0.00  0.00  0.00  0.00  0.00
  85                      1.00   0.00  0.00  0.00  1.00  0.00  0.00  0.00  0.00  0.00
  86                      1.00   0.00  0.00  0.00  1.00  0.00  0.00  0.00  0.00  0.00
  87                      1.00   0.00  0.00  0.00  1.00  0.00  0.00  0.00  0.00  0.00
  88                      1.04   0.00  0.00  0.00  1.00  0.00  0.00  0.00  0.00  0.00
  89                      1.00   0.00  1.00  0.00  0.00  0.00  0.00  0.00  0.00  0.00
  90                      9.81   0.00  0.00  0.00  1.00  0.00  0.00  0.00  0.00  0.00
  91                     40.90   0.00  0.00  0.00  1.00  0.00  0.00  0.00  0.00  0.00
  92                    776.95   0.00  1.00  0.00  0.00  0.00  0.00  0.00  0.00  0.00
  93                      8.28   0.00  0.00  0.00  1.00  0.00  0.00  0.00  0.00  0.00
  94                      1.46   0.00  0.00  0.00  1.00  0.00  0.00  0.00  0.00  0.00
  95                      1.00   1.00  0.00  0.00  0.00  0.00  0.00  0.00  0.00  0.00
  96                      1.93   1.00  0.00  0.00  0.00  0.00  0.00  0.00  0.00  0.00
  97                      1.21   1.00  0.00  0.00  0.00  0.00  0.00  0.00  0.00  0.00
  98                      1.20   1.00  0.00  0.00  0.00  0.00  0.00  0.00  0.00  0.00
  99                      1.35   0.00  1.00  0.00  0.00  0.00  0.00  0.00  0.05  0.00
  100                     1.54   0.00  0.00  0.00  1.00  0.00  0.00  0.00  0.05  0.00
  101                     1.00   1.00  0.00  0.00  0.00  0.00  0.00  0.00  0.00  0.00
  102                     1.16   0.00  1.00  0.00  0.00  0.00  0.00  0.00  0.00  0.00
  103                     1.00   0.00  0.01  0.00  0.99  0.00  0.00  0.00  0.02  0.00
  104                     1.00   0.00  1.00  0.00  0.00  0.00  0.00  0.00  0.05  0.00
  17                      1.00   1.00  0.00  0.00  0.00  0.00  0.00  0.00  0.00  0.00
  18                      1.00   1.00  0.00  0.00  0.00  0.00  0.00  0.00  0.00  0.00
  66                      1.00   1.00  0.00  0.00  0.00  0.00  0.00  0.00  0.00  0.00
  105                     1.00   1.00  0.00  0.00  0.00  0.00  0.00  0.00  0.00  0.00
  106                     1.00   1.00  0.00  0.00  0.00  0.00  0.00  0.00  0.00  0.00
  107                     1.00   1.00  0.00  0.00  0.00  0.00  0.00  0.00  0.00  0.00
  108                     1.00   1.00  0.00  0.00  0.00  0.00  0.00  0.00  0.00  0.00
  109                     1.00   1.00  0.00  0.00  0.00  0.00  0.00  0.00  0.00  0.00
  110                     1.00   1.00  0.00  0.00  0.00  0.00  0.00  0.00  0.00  0.00
  111                     1.00   1.00  0.00  0.00  0.00  0.00  0.00  0.00  0.00  0.00
  112                     1.00   1.00  0.00  0.00  0.00  0.00  0.00  0.00  0.00  0.00
  113                     1.31   1.00  0.00  0.00  0.00  0.00  0.00  0.00  0.00  0.00
  114                     1.00   1.00  0.00  0.00  0.00  0.00  0.00  0.00  0.00  0.00
  115                     1.00   1.00  0.00  0.00  0.00  0.00  0.00  0.00  0.00  0.00
  116                     1.00   1.00  0.00  0.00  0.00  0.00  0.00  0.00  0.00  0.00
  117                     1.00   1.00  0.00  0.00  0.00  0.00  0.00  0.00  0.00  0.00
  118                     1.00   1.00  0.00  0.00  0.00  0.00  0.00  0.00  0.00  0.00
  119                     1.00   1.00  0.00  0.00  0.00  0.00  0.00  0.00  0.00  0.00
  120                     1.00   1.00  0.00  0.00  0.00  0.00  0.00  0.00  0.00  0.00
  121                     1.00   1.00  0.00  0.00  0.00  0.00  0.00  0.00  0.00  0.00
  122                     1.00   1.00  0.00  0.00  0.00  0.00  0.00  0.00  0.00  0.00
  123                     1.27   1.00  0.00  0.00  0.00  0.00  0.00  0.00  0.00  0.00
  124                     1.00   1.00  0.00  0.00  0.00  0.00  0.00  0.00  0.00  0.00
  125                     1.00   1.00  0.00  0.00  0.00  0.00  0.00  0.00  0.00  0.00
  126                     1.00   1.00  0.00  0.00  0.00  0.00  0.00  0.00  0.00  0.00
  127                     1.00   1.00  0.00  0.00  0.00  0.00  0.00  0.00  0.00  0.00
  128                     1.00   1.00  0.00  0.00  0.00  0.00  0.00  0.00  0.00  0.00
  129                     1.00   1.00  0.00  0.00  0.00  0.00  0.00  0.00  0.00  0.00
  130                     1.00   1.00  0.00  0.00  0.00  0.00  0.00  0.00  0.00  0.00
  131                     1.00   1.00  0.00  0.00  0.00  0.00  0.00  0.00  0.00  0.00
  132                     1.85   1.00  0.00  0.00  0.00  0.00  0.00  0.00  0.00  0.00
  133                     1.00   1.00  0.00  0.00  0.00  0.00  0.00  0.00  0.00  0.00
  134                     1.00   1.00  0.00  0.00  0.00  0.00  0.00  0.00  0.00  0.00
  135                     1.12   1.00  0.00  0.00  0.00  0.00  0.00  0.00  0.00  0.00
  136                     1.00   1.00  0.00  0.00  0.00  0.00  0.00  0.00  0.00  0.00
  137                     1.00   1.00  0.00  0.00  0.00  0.00  0.00  0.00  0.00  0.00
  138                     1.00   1.00  0.00  0.00  0.00  0.00  0.00  0.00  0.00  0.00
  139                     1.00   1.00  0.00  0.00  0.00  0.00  0.00  0.00  0.00  0.00
  140                     1.33   1.00  0.00  0.00  0.00  0.00  0.00  0.00  0.00  0.00
  141                     1.18   1.00  0.00  0.00  0.00  0.00  0.00  0.00  0.00  0.00
  142                     1.00   1.00  0.00  0.00  0.00  0.00  0.00  0.00  0.00  0.00
  143                     1.00   1.00  0.00  0.00  0.00  0.00  0.00  0.00  0.00  0.00
  145                     1.00   1.00  0.00  0.00  0.00  0.00  0.00  0.00  0.00  0.00
  146                     2.31   1.00  0.00  0.00  0.00  0.00  0.00  0.00  0.00  0.00
  147                    90.89   1.00  0.00  0.00  0.00  0.00  0.00  0.00  0.00  0.00
  148                     2.61   0.00  1.00  0.00  0.00  0.00  0.00  0.00  0.00  0.00
  149                     1.00   1.00  0.00  0.00  0.00  0.00  0.00  0.00  0.00  0.00
  
  
  *************************
  Conduit Surcharge Summary
  *************************
  
  ----------------------------------------------------------------------------
                                                           Hours        Hours 
                         --------- Hours Full --------   Above Full   Capacity
  Conduit                Both Ends  Upstream  Dnstream   Normal Flow   Limited
  ----------------------------------------------------------------------------
  7                           0.01      0.01     10.00      0.01         0.01
  8                          10.00     10.00     10.00      0.01         1.79
  9                          10.00     10.00     10.00      0.01         0.01
  10                         10.00     10.00     10.00      0.01         0.01
  11                         10.00     10.00     10.00      0.01         0.01
  12                         10.00     10.00     10.00      0.01         0.01
  13                         10.00     10.00     10.00      0.01         0.01
  14                         10.00     10.00     10.00      0.01         0.01
  15                          0.01      0.01     10.00      0.01         0.01
  19                         10.00     10.00     10.00      0.01         0.01
  20                         10.00     10.00     10.00      0.01         0.01
  21                         10.00     10.00     10.00      0.01         0.01
  22                          0.01      0.01     10.00      0.01         0.01
  29                          0.01      0.01     10.00      0.01         0.01
  31                         10.00     10.00     10.00      0.01         0.01
  32                         10.00     10.00     10.00      0.01         0.01
  33                         10.00     10.00     10.00      0.01         0.01
  37                         10.00     10.00     10.00      0.01         0.01
  38                         10.00     10.00     10.00      0.01         0.01
  39                         10.00     10.00     10.00      0.01         5.04
  40                         10.00     10.00     10.00      0.01         0.01
  41                         10.00     10.00     10.00      0.01         0.01
  42                         10.00     10.00     10.00      0.01         0.01
  44                         10.00     10.00     10.00      0.01         0.01
  45                         10.00     10.00     10.00      0.01         0.01
  46                         10.00     10.00     10.00      0.01         0.01
  47                         10.00     10.00     10.00      0.01         0.01
  48                         10.00     10.00     10.00      0.01         4.78
  49                         10.00     10.00     10.00      0.01         0.01
  50                          0.01      0.01     10.00      0.01         0.01
  65                          0.01      0.01     10.00      0.01         0.01
  68                         10.00     10.00     10.00      0.01         0.01
  80                         10.00     10.00     10.00      0.01         4.01
  81                         10.00     10.00     10.00      0.01         0.01
  82                         10.00     10.00     10.00      0.01         0.01
  83                         10.00     10.00     10.00      0.01         0.01
  85                         10.00     10.00     10.00      0.01         5.05
  86                         10.00     10.00     10.00      0.01         0.01
  87                          0.01      0.01     10.00      0.01         0.01
  90                          0.01      0.01     10.00      0.01         0.01
  91                         10.00     10.00     10.00      0.01         0.01
  93                          0.01      0.01     10.00      0.01         0.01
  94                         10.00     10.00     10.00      0.01         0.01
  
  
  ************
  Node Results
  ************
  
  <<< Node 1 >>>
  ----------------------------------------------------------------
                           Inflow  Flooding     Depth      Head
  Date        Time            CFS       CFS      feet      feet
  ----------------------------------------------------------------
   01/08/2020 14:00:00      0.000     0.000     0.000    10.010
   01/08/2020 14:15:00      0.000     0.000     0.000    10.010
   01/08/2020 14:30:00      0.000     0.000     0.000    10.010
   01/08/2020 14:45:00      0.000     0.000     0.000    10.010
   01/08/2020 15:00:00      0.000     0.000     0.000    10.010
   01/08/2020 15:15:00      0.000     0.000     0.000    10.010
   01/08/2020 15:30:00      0.000     0.000     0.000    10.010
   01/08/2020 15:45:00      0.000     0.000     0.000    10.010
   01/08/2020 16:00:00      0.000     0.000     0.000    10.010
   01/08/2020 16:15:00      0.000     0.000     0.000    10.010
   01/08/2020 16:30:00      0.000     0.000     0.000    10.010
   01/08/2020 16:45:00      0.000     0.000     0.000    10.010
   01/08/2020 17:00:00      0.000     0.000     0.000    10.010
   01/08/2020 17:15:00      0.000     0.000     0.000    10.010
   01/08/2020 17:30:00      0.000     0.000     0.000    10.010
   01/08/2020 17:45:00      0.000     0.000     0.000    10.010
   01/08/2020 18:00:00      0.000     0.000     0.000    10.010
   01/08/2020 18:15:00      0.000     0.000     0.000    10.010
   01/08/2020 18:30:00      0.000     0.000     0.000    10.010
   01/08/2020 18:45:00      0.000     0.000     0.000    10.010
   01/08/2020 19:00:00      0.000     0.000     0.000    10.010
   01/08/2020 19:15:00      0.000     0.000     0.000    10.010
   01/08/2020 19:30:00      0.000     0.000     0.000    10.010
   01/08/2020 19:45:00      0.000     0.000     0.000    10.010
   01/08/2020 20:00:00      0.000     0.000     0.000    10.010
   01/08/2020 20:15:00      0.000     0.000     0.000    10.010
   01/08/2020 20:30:00      0.000     0.000     0.000    10.010
   01/08/2020 20:45:00      0.000     0.000     0.000    10.010
   01/08/2020 21:00:00      0.000     0.000     0.000    10.010
   01/08/2020 21:15:00      0.000     0.000     0.000    10.010
   01/08/2020 21:30:00      0.000     0.000     0.000    10.010
   01/08/2020 21:45:00      0.000     0.000     0.000    10.010
   01/08/2020 22:00:00      0.000     0.000     0.000    10.010
   01/08/2020 22:15:00      0.000     0.000     0.000    10.010
   01/08/2020 22:30:00      0.000     0.000     0.000    10.010
   01/08/2020 22:45:00      0.000     0.000     0.000    10.010
   01/08/2020 23:00:00      0.000     0.000     0.000    10.010
   01/08/2020 23:15:00      0.000     0.000     0.000    10.010
   01/08/2020 23:30:00      0.000     0.000     0.000    10.010
   01/08/2020 23:45:00      0.000     0.000     0.000    10.010
   01/09/2020 00:00:00      0.000     0.000     0.000    10.010
  
  
  <<< Node 2 >>>
  ----------------------------------------------------------------
                           Inflow  Flooding     Depth      Head
  Date        Time            CFS       CFS      feet      feet
  ----------------------------------------------------------------
   01/08/2020 14:00:00      0.000     0.000     0.000     8.990
   01/08/2020 14:15:00      0.000     0.000     0.000     8.990
   01/08/2020 14:30:00      0.000     0.000     0.000     8.990
   01/08/2020 14:45:00      0.000     0.000     0.000     8.990
   01/08/2020 15:00:00      0.000     0.000     0.000     8.990
   01/08/2020 15:15:00      0.000     0.000     0.000     8.990
   01/08/2020 15:30:00      0.000     0.000     0.000     8.990
   01/08/2020 15:45:00      0.000     0.000     0.000     8.990
   01/08/2020 16:00:00      0.000     0.000     0.000     8.990
   01/08/2020 16:15:00      0.000     0.000     0.000     8.990
   01/08/2020 16:30:00      0.000     0.000     0.000     8.990
   01/08/2020 16:45:00      0.000     0.000     0.000     8.990
   01/08/2020 17:00:00      0.000     0.000     0.000     8.990
   01/08/2020 17:15:00      0.000     0.000     0.000     8.990
   01/08/2020 17:30:00      0.000     0.000     0.000     8.990
   01/08/2020 17:45:00      0.000     0.000     0.000     8.990
   01/08/2020 18:00:00      0.000     0.000     0.000     8.990
   01/08/2020 18:15:00      0.000     0.000     0.000     8.990
   01/08/2020 18:30:00      0.000     0.000     0.000     8.990
   01/08/2020 18:45:00      0.000     0.000     0.000     8.990
   01/08/2020 19:00:00      0.000     0.000     0.000     8.990
   01/08/2020 19:15:00      0.000     0.000     0.000     8.990
   01/08/2020 19:30:00      0.000     0.000     0.000     8.990
   01/08/2020 19:45:00      0.000     0.000     0.000     8.990
   01/08/2020 20:00:00      0.000     0.000     0.000     8.990
   01/08/2020 20:15:00      0.000     0.000     0.000     8.990
   01/08/2020 20:30:00      0.000     0.000     0.000     8.990
   01/08/2020 20:45:00      0.000     0.000     0.000     8.990
   01/08/2020 21:00:00      0.000     0.000     0.000     8.990
   01/08/2020 21:15:00      0.000     0.000     0.000     8.990
   01/08/2020 21:30:00      0.000     0.000     0.000     8.990
   01/08/2020 21:45:00      0.000     0.000     0.000     8.990
   01/08/2020 22:00:00      0.000     0.000     0.000     8.990
   01/08/2020 22:15:00      0.000     0.000     0.000     8.990
   01/08/2020 22:30:00      0.000     0.000     0.000     8.990
   01/08/2020 22:45:00      0.000     0.000     0.000     8.990
   01/08/2020 23:00:00      0.000     0.000     0.000     8.990
   01/08/2020 23:15:00      0.000     0.000     0.000     8.990
   01/08/2020 23:30:00      0.000     0.000     0.000     8.990
   01/08/2020 23:45:00      0.000     0.000     0.000     8.990
   01/09/2020 00:00:00      0.000     0.000     0.000     8.990
  
  
  <<< Node 3 >>>
  ----------------------------------------------------------------
                           Inflow  Flooding     Depth      Head
  Date        Time            CFS       CFS      feet      feet
  ----------------------------------------------------------------
   01/08/2020 14:00:00      0.001     0.000    11.810     8.590
   01/08/2020 14:15:00      0.004     0.000    11.810     8.590
   01/08/2020 14:30:00      0.000     0.000    11.810     8.590
   01/08/2020 14:45:00      0.000     0.000    11.810     8.590
   01/08/2020 15:00:00      0.000     0.000    11.810     8.590
   01/08/2020 15:15:00      0.000     0.000    11.810     8.590
   01/08/2020 15:30:00      0.001     0.000    11.810     8.590
   01/08/2020 15:45:00      0.000     0.000    11.810     8.590
   01/08/2020 16:00:00      0.000     0.000    11.810     8.590
   01/08/2020 16:15:00      0.001     0.000    11.810     8.590
   01/08/2020 16:30:00      0.000     0.000    11.810     8.590
   01/08/2020 16:45:00      0.001     0.000    11.810     8.590
   01/08/2020 17:00:00      0.000     0.000    11.810     8.590
   01/08/2020 17:15:00      0.001     0.000    11.810     8.590
   01/08/2020 17:30:00      0.000     0.000    11.810     8.590
   01/08/2020 17:45:00      0.001     0.000    11.810     8.590
   01/08/2020 18:00:00      0.001     0.000    11.810     8.590
   01/08/2020 18:15:00      0.000     0.000    11.810     8.590
   01/08/2020 18:30:00      0.001     0.000    11.810     8.590
   01/08/2020 18:45:00      0.001     0.000    11.810     8.590
   01/08/2020 19:00:00      0.000     0.000    11.810     8.590
   01/08/2020 19:15:00      0.001     0.000    11.810     8.590
   01/08/2020 19:30:00      0.002     0.000    11.810     8.590
   01/08/2020 19:45:00      0.000     0.000    11.810     8.590
   01/08/2020 20:00:00      0.005     0.000    11.810     8.590
   01/08/2020 20:15:00      0.000     0.000    11.810     8.590
   01/08/2020 20:30:00      0.000     0.000    11.810     8.590
   01/08/2020 20:45:00      0.001     0.000    11.810     8.590
   01/08/2020 21:00:00      0.003     0.000    11.810     8.590
   01/08/2020 21:15:00      0.004     0.000    11.810     8.590
   01/08/2020 21:30:00      0.000     0.000    11.810     8.590
   01/08/2020 21:45:00      0.000     0.000    11.810     8.590
   01/08/2020 22:00:00      0.000     0.000    11.810     8.590
   01/08/2020 22:15:00      0.000     0.000    11.810     8.590
   01/08/2020 22:30:00      0.001     0.000    11.810     8.590
   01/08/2020 22:45:00      0.001     0.000    11.810     8.590
   01/08/2020 23:00:00      0.002     0.000    11.810     8.590
   01/08/2020 23:15:00      0.001     0.000    11.810     8.590
   01/08/2020 23:30:00      0.001     0.000    11.810     8.590
   01/08/2020 23:45:00      0.000     0.000    11.810     8.590
   01/09/2020 00:00:00      0.016     0.000    11.810     8.590
  
  
  <<< Node 4 >>>
  ----------------------------------------------------------------
                           Inflow  Flooding     Depth      Head
  Date        Time            CFS       CFS      feet      feet
  ----------------------------------------------------------------
   01/08/2020 14:00:00      0.000     0.000    10.150     8.590
   01/08/2020 14:15:00      0.000     0.000    10.150     8.590
   01/08/2020 14:30:00      0.015     0.000    10.150     8.590
   01/08/2020 14:45:00      0.000     0.000    10.150     8.590
   01/08/2020 15:00:00      0.001     0.000    10.150     8.590
   01/08/2020 15:15:00      0.006     0.000    10.150     8.590
   01/08/2020 15:30:00      0.000     0.000    10.150     8.590
   01/08/2020 15:45:00      0.012     0.000    10.150     8.590
   01/08/2020 16:00:00      0.001     0.000    10.150     8.590
   01/08/2020 16:15:00      0.001     0.000    10.150     8.590
   01/08/2020 16:30:00      0.001     0.000    10.150     8.590
   01/08/2020 16:45:00      0.001     0.000    10.150     8.590
   01/08/2020 17:00:00      0.001     0.000    10.150     8.590
   01/08/2020 17:15:00      0.003     0.000    10.150     8.590
   01/08/2020 17:30:00      0.002     0.000    10.150     8.590
   01/08/2020 17:45:00      0.000     0.000    10.150     8.590
   01/08/2020 18:00:00      0.000     0.000    10.150     8.590
   01/08/2020 18:15:00      0.004     0.000    10.150     8.590
   01/08/2020 18:30:00      0.000     0.000    10.150     8.590
   01/08/2020 18:45:00      0.000     0.000    10.150     8.590
   01/08/2020 19:00:00      0.001     0.000    10.150     8.590
   01/08/2020 19:15:00      0.000     0.000    10.150     8.590
   01/08/2020 19:30:00      0.000     0.000    10.150     8.590
   01/08/2020 19:45:00      0.012     0.000    10.150     8.590
   01/08/2020 20:00:00      0.000     0.000    10.150     8.590
   01/08/2020 20:15:00      0.013     0.000    10.150     8.590
   01/08/2020 20:30:00      0.001     0.000    10.150     8.590
   01/08/2020 20:45:00      0.000     0.000    10.150     8.590
   01/08/2020 21:00:00      0.001     0.000    10.150     8.590
   01/08/2020 21:15:00      0.000     0.000    10.150     8.590
   01/08/2020 21:30:00      0.005     0.000    10.150     8.590
   01/08/2020 21:45:00      0.003     0.000    10.150     8.590
   01/08/2020 22:00:00      0.001     0.000    10.150     8.590
   01/08/2020 22:15:00      0.001     0.000    10.150     8.590
   01/08/2020 22:30:00      0.000     0.000    10.150     8.590
   01/08/2020 22:45:00      0.000     0.000    10.150     8.590
   01/08/2020 23:00:00      0.000     0.000    10.150     8.590
   01/08/2020 23:15:00      0.000     0.000    10.150     8.590
   01/08/2020 23:30:00      0.000     0.000    10.150     8.590
   01/08/2020 23:45:00      0.001     0.000    10.150     8.590
   01/09/2020 00:00:00      0.000     0.000    10.150     8.590
  
  
  <<< Node 5 >>>
  ----------------------------------------------------------------
                           Inflow  Flooding     Depth      Head
  Date        Time            CFS       CFS      feet      feet
  ----------------------------------------------------------------
   01/08/2020 14:00:00      0.000     0.000     0.000     8.590
   01/08/2020 14:15:00      0.000     0.000     0.000     8.590
   01/08/2020 14:30:00      0.000     0.000     0.000     8.590
   01/08/2020 14:45:00      0.000     0.000     0.000     8.590
   01/08/2020 15:00:00      0.000     0.000     0.000     8.590
   01/08/2020 15:15:00      0.000     0.000     0.000     8.590
   01/08/2020 15:30:00      0.001     0.000     0.000     8.590
   01/08/2020 15:45:00      0.000     0.000     0.000     8.590
   01/08/2020 16:00:00      0.000     0.000     0.000     8.590
   01/08/2020 16:15:00      0.000     0.000     0.000     8.590
   01/08/2020 16:30:00      0.000     0.000     0.000     8.590
   01/08/2020 16:45:00      0.000     0.000     0.000     8.590
   01/08/2020 17:00:00      0.000     0.000     0.000     8.590
[...]
   01/08/2020 16:15:00      0.000     0.000     0.000     0.000
   01/08/2020 16:30:00      0.000     0.000     0.000     0.000
   01/08/2020 16:45:00      0.000     0.000     0.000     0.000
   01/08/2020 17:00:00      0.000     0.000     0.000     0.000
   01/08/2020 17:15:00      0.000     0.000     0.000     0.000
   01/08/2020 17:30:00      0.000     0.000     0.000     0.000
   01/08/2020 17:45:00      0.000     0.000     0.000     0.000
   01/08/2020 18:00:00      0.000     0.000     0.000     0.000
   01/08/2020 18:15:00      0.000     0.000     0.000     0.000
   01/08/2020 18:30:00      0.000     0.000     0.000     0.000
   01/08/2020 18:45:00      0.000     0.000     0.000     0.000
   01/08/2020 19:00:00      0.000     0.000     0.000     0.000
   01/08/2020 19:15:00      0.000     0.000     0.000     0.000
   01/08/2020 19:30:00      0.000     0.000     0.000     0.000
   01/08/2020 19:45:00      0.000     0.000     0.000     0.000
   01/08/2020 20:00:00      0.000     0.000     0.000     0.000
   01/08/2020 20:15:00      0.000     0.000     0.000     0.000
   01/08/2020 20:30:00      0.000     0.000     0.000     0.000
   01/08/2020 20:45:00      0.000     0.000     0.000     0.000
   01/08/2020 21:00:00      0.000     0.000     0.000     0.000
   01/08/2020 21:15:00      0.000     0.000     0.000     0.000
   01/08/2020 21:30:00      0.000     0.000     0.000     0.000
   01/08/2020 21:45:00      0.000     0.000     0.000     0.000
   01/08/2020 22:00:00      0.000     0.000     0.000     0.000
   01/08/2020 22:15:00      0.000     0.000     0.000     0.000
   01/08/2020 22:30:00      0.000     0.000     0.000     0.000
   01/08/2020 22:45:00      0.000     0.000     0.000     0.000
   01/08/2020 23:00:00      0.000     0.000     0.000     0.000
   01/08/2020 23:15:00      0.000     0.000     0.000     0.000
   01/08/2020 23:30:00      0.000     0.000     0.000     0.000
   01/08/2020 23:45:00      0.000     0.000     0.000     0.000
   01/09/2020 00:00:00      0.000     0.000     0.000     0.000
  
  
  <<< Link 143 >>>
  ----------------------------------------------------------------
                             Flow  Velocity     Depth  Capacity/
  Date        Time            CFS    ft/sec      feet   Setting 
  ----------------------------------------------------------------
   01/08/2020 14:00:00      0.000     0.000     0.000     0.000
   01/08/2020 14:15:00      0.000     0.000     0.000     0.000
   01/08/2020 14:30:00      0.000     0.000     0.000     0.000
   01/08/2020 14:45:00      0.000     0.000     0.000     0.000
   01/08/2020 15:00:00      0.000     0.000     0.000     0.000
   01/08/2020 15:15:00      0.000     0.000     0.000     0.000
   01/08/2020 15:30:00      0.000     0.000     0.000     0.000
   01/08/2020 15:45:00      0.000     0.000     0.000     0.000
   01/08/2020 16:00:00      0.000     0.000     0.000     0.000
   01/08/2020 16:15:00      0.000     0.000     0.000     0.000
   01/08/2020 16:30:00      0.000     0.000     0.000     0.000
   01/08/2020 16:45:00      0.000     0.000     0.000     0.000
   01/08/2020 17:00:00      0.000     0.000     0.000     0.000
   01/08/2020 17:15:00      0.000     0.000     0.000     0.000
   01/08/2020 17:30:00      0.000     0.000     0.000     0.000
   01/08/2020 17:45:00      0.000     0.000     0.000     0.000
   01/08/2020 18:00:00      0.000     0.000     0.000     0.000
   01/08/2020 18:15:00      0.000     0.000     0.000     0.000
   01/08/2020 18:30:00      0.000     0.000     0.000     0.000
   01/08/2020 18:45:00      0.000     0.000     0.000     0.000
   01/08/2020 19:00:00      0.000     0.000     0.000     0.000
   01/08/2020 19:15:00      0.000     0.000     0.000     0.000
   01/08/2020 19:30:00      0.000     0.000     0.000     0.000
   01/08/2020 19:45:00      0.000     0.000     0.000     0.000
   01/08/2020 20:00:00      0.000     0.000     0.000     0.000
   01/08/2020 20:15:00      0.000     0.000     0.000     0.000
   01/08/2020 20:30:00      0.000     0.000     0.000     0.000
   01/08/2020 20:45:00      0.000     0.000     0.000     0.000
   01/08/2020 21:00:00      0.000     0.000     0.000     0.000
   01/08/2020 21:15:00      0.000     0.000     0.000     0.000
   01/08/2020 21:30:00      0.000     0.000     0.000     0.000
   01/08/2020 21:45:00      0.000     0.000     0.000     0.000
   01/08/2020 22:00:00      0.000     0.000     0.000     0.000
   01/08/2020 22:15:00      0.000     0.000     0.000     0.000
   01/08/2020 22:30:00      0.000     0.000     0.000     0.000
   01/08/2020 22:45:00      0.000     0.000     0.000     0.000
   01/08/2020 23:00:00      0.000     0.000     0.000     0.000
   01/08/2020 23:15:00      0.000     0.000     0.000     0.000
   01/08/2020 23:30:00      0.000     0.000     0.000     0.000
   01/08/2020 23:45:00      0.000     0.000     0.000     0.000
   01/09/2020 00:00:00      0.000     0.000     0.000     0.000
  
  
  <<< Link 145 >>>
  ----------------------------------------------------------------
                             Flow  Velocity     Depth  Capacity/
  Date        Time            CFS    ft/sec      feet   Setting 
  ----------------------------------------------------------------
   01/08/2020 14:00:00     -0.000    -0.000     0.000     0.000
   01/08/2020 14:15:00     -0.000    -0.000     0.000     0.000
   01/08/2020 14:30:00     -0.000    -0.000     0.000     0.000
   01/08/2020 14:45:00     -0.000    -0.000     0.000     0.000
   01/08/2020 15:00:00     -0.000    -0.000     0.000     0.000
   01/08/2020 15:15:00     -0.000    -0.000     0.000     0.000
   01/08/2020 15:30:00     -0.000    -0.000     0.000     0.000
   01/08/2020 15:45:00     -0.000    -0.000     0.000     0.000
   01/08/2020 16:00:00     -0.000    -0.000     0.000     0.000
   01/08/2020 16:15:00     -0.000    -0.000     0.000     0.000
   01/08/2020 16:30:00     -0.000    -0.000     0.000     0.000
   01/08/2020 16:45:00     -0.000    -0.000     0.000     0.000
   01/08/2020 17:00:00     -0.000    -0.000     0.000     0.000
   01/08/2020 17:15:00     -0.000    -0.000     0.000     0.000
   01/08/2020 17:30:00     -0.000    -0.000     0.000     0.000
   01/08/2020 17:45:00     -0.000    -0.000     0.000     0.000
   01/08/2020 18:00:00     -0.000    -0.000     0.000     0.000
   01/08/2020 18:15:00     -0.000    -0.000     0.000     0.000
   01/08/2020 18:30:00     -0.000    -0.000     0.000     0.000
   01/08/2020 18:45:00     -0.000    -0.000     0.000     0.000
   01/08/2020 19:00:00     -0.000    -0.000     0.000     0.000
   01/08/2020 19:15:00     -0.000    -0.000     0.000     0.000
   01/08/2020 19:30:00     -0.000    -0.000     0.000     0.000
   01/08/2020 19:45:00     -0.000    -0.000     0.000     0.000
   01/08/2020 20:00:00     -0.000    -0.000     0.000     0.000
   01/08/2020 20:15:00     -0.000    -0.000     0.000     0.000
   01/08/2020 20:30:00     -0.000    -0.000     0.000     0.000
   01/08/2020 20:45:00     -0.000    -0.000     0.000     0.000
   01/08/2020 21:00:00     -0.000    -0.000     0.000     0.000
   01/08/2020 21:15:00     -0.000    -0.000     0.000     0.000
   01/08/2020 21:30:00     -0.000    -0.000     0.000     0.000
   01/08/2020 21:45:00     -0.000    -0.000     0.000     0.000
   01/08/2020 22:00:00     -0.000    -0.000     0.000     0.000
   01/08/2020 22:15:00     -0.000    -0.000     0.000     0.000
   01/08/2020 22:30:00     -0.000    -0.000     0.000     0.000
   01/08/2020 22:45:00     -0.000    -0.000     0.000     0.000
   01/08/2020 23:00:00     -0.000    -0.000     0.000     0.000
   01/08/2020 23:15:00     -0.000    -0.000     0.000     0.000
   01/08/2020 23:30:00     -0.000    -0.000     0.000     0.000
   01/08/2020 23:45:00     -0.000    -0.000     0.000     0.000
   01/09/2020 00:00:00     -0.000    -0.000     0.000     0.000
  
  
  <<< Link 146 >>>
  ----------------------------------------------------------------
                             Flow  Velocity     Depth  Capacity/
  Date        Time            CFS    ft/sec      feet   Setting 
  ----------------------------------------------------------------
   01/08/2020 14:00:00     -0.000    -0.000     0.000     0.000
   01/08/2020 14:15:00     -0.000    -0.000     0.000     0.000
   01/08/2020 14:30:00     -0.000    -0.000     0.000     0.000
   01/08/2020 14:45:00     -0.000    -0.000     0.000     0.000
   01/08/2020 15:00:00     -0.000    -0.000     0.000     0.000
   01/08/2020 15:15:00     -0.000    -0.000     0.000     0.000
   01/08/2020 15:30:00     -0.000    -0.000     0.000     0.000
   01/08/2020 15:45:00     -0.000    -0.000     0.000     0.000
   01/08/2020 16:00:00     -0.000    -0.000     0.000     0.000
   01/08/2020 16:15:00     -0.000    -0.000     0.000     0.000
   01/08/2020 16:30:00     -0.000    -0.000     0.000     0.000
   01/08/2020 16:45:00     -0.000    -0.000     0.000     0.000
   01/08/2020 17:00:00     -0.000    -0.000     0.000     0.000
   01/08/2020 17:15:00     -0.000    -0.000     0.000     0.000
   01/08/2020 17:30:00     -0.000    -0.000     0.000     0.000
   01/08/2020 17:45:00     -0.000    -0.000     0.000     0.000
   01/08/2020 18:00:00     -0.000    -0.000     0.000     0.000
   01/08/2020 18:15:00     -0.000    -0.000     0.000     0.000
   01/08/2020 18:30:00     -0.000    -0.000     0.000     0.000
   01/08/2020 18:45:00     -0.000    -0.000     0.000     0.000
   01/08/2020 19:00:00     -0.000    -0.000     0.000     0.000
   01/08/2020 19:15:00     -0.000    -0.000     0.000     0.000
   01/08/2020 19:30:00     -0.000    -0.000     0.000     0.000
   01/08/2020 19:45:00     -0.000    -0.000     0.000     0.000
   01/08/2020 20:00:00     -0.000    -0.000     0.000     0.000
   01/08/2020 20:15:00     -0.000    -0.000     0.000     0.000
   01/08/2020 20:30:00     -0.000    -0.000     0.000     0.000
   01/08/2020 20:45:00     -0.000    -0.000     0.000     0.000
   01/08/2020 21:00:00     -0.000    -0.000     0.000     0.000
   01/08/2020 21:15:00     -0.000    -0.000     0.000     0.000
   01/08/2020 21:30:00     -0.000    -0.000     0.000     0.000
   01/08/2020 21:45:00     -0.000    -0.000     0.000     0.000
   01/08/2020 22:00:00     -0.000    -0.000     0.000     0.000
   01/08/2020 22:15:00     -0.000    -0.000     0.000     0.000
   01/08/2020 22:30:00     -0.000    -0.000     0.000     0.000
   01/08/2020 22:45:00     -0.000    -0.000     0.000     0.000
   01/08/2020 23:00:00     -0.000    -0.000     0.000     0.000
   01/08/2020 23:15:00     -0.000    -0.000     0.000     0.000
   01/08/2020 23:30:00     -0.000    -0.000     0.000     0.000
   01/08/2020 23:45:00     -0.000    -0.000     0.000     0.000
   01/09/2020 00:00:00     -0.000    -0.000     0.000     0.000
  
  
  <<< Link 147 >>>
  ----------------------------------------------------------------
                             Flow  Velocity     Depth  Capacity/
  Date        Time            CFS    ft/sec      feet   Setting 
  ----------------------------------------------------------------
   01/08/2020 14:00:00      0.000     0.000     0.000     0.000
   01/08/2020 14:15:00      0.000     0.000     0.000     0.000
   01/08/2020 14:30:00      0.000     0.000     0.000     0.000
   01/08/2020 14:45:00      0.000     0.000     0.000     0.000
   01/08/2020 15:00:00      0.000     0.000     0.000     0.000
   01/08/2020 15:15:00      0.000     0.000     0.000     0.000
   01/08/2020 15:30:00      0.000     0.000     0.000     0.000
   01/08/2020 15:45:00      0.000     0.000     0.000     0.000
   01/08/2020 16:00:00      0.000     0.000     0.000     0.000
   01/08/2020 16:15:00      0.000     0.000     0.000     0.000
   01/08/2020 16:30:00      0.000     0.000     0.000     0.000
   01/08/2020 16:45:00      0.000     0.000     0.000     0.000
   01/08/2020 17:00:00      0.000     0.000     0.000     0.000
   01/08/2020 17:15:00      0.000     0.000     0.000     0.000
   01/08/2020 17:30:00      0.000     0.000     0.000     0.000
   01/08/2020 17:45:00      0.000     0.000     0.000     0.000
   01/08/2020 18:00:00      0.000     0.000     0.000     0.000
   01/08/2020 18:15:00      0.000     0.000     0.000     0.000
   01/08/2020 18:30:00      0.000     0.000     0.000     0.000
   01/08/2020 18:45:00      0.000     0.000     0.000     0.000
   01/08/2020 19:00:00      0.000     0.000     0.000     0.000
   01/08/2020 19:15:00      0.000     0.000     0.000     0.000
   01/08/2020 19:30:00      0.000     0.000     0.000     0.000
   01/08/2020 19:45:00      0.000     0.000     0.000     0.000
   01/08/2020 20:00:00      0.000     0.000     0.000     0.000
   01/08/2020 20:15:00      0.000     0.000     0.000     0.000
   01/08/2020 20:30:00      0.000     0.000     0.000     0.000
   01/08/2020 20:45:00      0.000     0.000     0.000     0.000
   01/08/2020 21:00:00      0.000     0.000     0.000     0.000
   01/08/2020 21:15:00      0.000     0.000     0.000     0.000
   01/08/2020 21:30:00      0.000     0.000     0.000     0.000
   01/08/2020 21:45:00      0.000     0.000     0.000     0.000
   01/08/2020 22:00:00      0.000     0.000     0.000     0.000
   01/08/2020 22:15:00      0.000     0.000     0.000     0.000
   01/08/2020 22:30:00      0.000     0.000     0.000     0.000
   01/08/2020 22:45:00      0.000     0.000     0.000     0.000
   01/08/2020 23:00:00      0.000     0.000     0.000     0.000
   01/08/2020 23:15:00      0.000     0.000     0.000     0.000
   01/08/2020 23:30:00      0.000     0.000     0.000     0.000
   01/08/2020 23:45:00      0.000     0.000     0.000     0.000
   01/09/2020 00:00:00      0.000     0.000     0.000     0.000
  
  
  <<< Link 148 >>>
  ----------------------------------------------------------------
                             Flow  Velocity     Depth  Capacity/
  Date        Time            CFS    ft/sec      feet   Setting 
  ----------------------------------------------------------------
   01/08/2020 14:00:00      0.000     0.000     7.500     0.500
   01/08/2020 14:15:00      0.000     0.000     7.500     0.500
   01/08/2020 14:30:00      0.000     0.000     7.500     0.500
   01/08/2020 14:45:00      0.000     0.000     7.500     0.500
   01/08/2020 15:00:00      0.000     0.000     7.500     0.500
   01/08/2020 15:15:00      0.000     0.000     7.500     0.500
   01/08/2020 15:30:00      0.000     0.000     7.500     0.500
   01/08/2020 15:45:00      0.000     0.000     7.500     0.500
   01/08/2020 16:00:00      0.000     0.000     7.500     0.500
   01/08/2020 16:15:00      0.000     0.000     7.500     0.500
   01/08/2020 16:30:00      0.000     0.000     7.500     0.500
   01/08/2020 16:45:00      0.000     0.000     7.500     0.500
   01/08/2020 17:00:00      0.000     0.000     7.500     0.500
   01/08/2020 17:15:00      0.000     0.000     7.500     0.500
   01/08/2020 17:30:00      0.000     0.000     7.500     0.500
   01/08/2020 17:45:00      0.000     0.000     7.500     0.500
   01/08/2020 18:00:00      0.000     0.000     7.500     0.500
   01/08/2020 18:15:00      0.000     0.000     7.500     0.500
   01/08/2020 18:30:00      0.000     0.000     7.500     0.500
   01/08/2020 18:45:00      0.000     0.000     7.500     0.500
   01/08/2020 19:00:00      0.000     0.000     7.500     0.500
   01/08/2020 19:15:00      0.000     0.000     7.500     0.500
   01/08/2020 19:30:00      0.000     0.000     7.500     0.500
   01/08/2020 19:45:00      0.000     0.000     7.500     0.500
   01/08/2020 20:00:00      0.000     0.000     7.500     0.500
   01/08/2020 20:15:00      0.000     0.000     7.500     0.500
   01/08/2020 20:30:00      0.000     0.000     7.500     0.500
   01/08/2020 20:45:00      0.000     0.000     7.500     0.500
   01/08/2020 21:00:00      0.000     0.000     7.500     0.500
   01/08/2020 21:15:00      0.000     0.000     7.500     0.500
   01/08/2020 21:30:00      0.000     0.000     7.500     0.500
   01/08/2020 21:45:00      0.000     0.000     7.500     0.500
   01/08/2020 22:00:00      0.000     0.000     7.500     0.500
   01/08/2020 22:15:00      0.000     0.000     7.500     0.500
   01/08/2020 22:30:00      0.000     0.000     7.500     0.500
   01/08/2020 22:45:00      0.000     0.000     7.500     0.500
   01/08/2020 23:00:00      0.000     0.000     7.500     0.500
   01/08/2020 23:15:00      0.000     0.000     7.500     0.500
   01/08/2020 23:30:00      0.000     0.000     7.500     0.500
   01/08/2020 23:45:00      0.000     0.000     7.500     0.500
   01/09/2020 00:00:00      0.000     0.000     7.500     0.500
  
  
  <<< Link 149 >>>
  ----------------------------------------------------------------
                             Flow  Velocity     Depth  Capacity/
  Date        Time            CFS    ft/sec      feet   Setting 
  ----------------------------------------------------------------
   01/08/2020 14:00:00     -0.000    -0.000     0.000     0.000
   01/08/2020 14:15:00     -0.000    -0.000     0.000     0.000
   01/08/2020 14:30:00     -0.000    -0.000     0.000     0.000
   01/08/2020 14:45:00     -0.000    -0.000     0.000     0.000
   01/08/2020 15:00:00     -0.000    -0.000     0.000     0.000
   01/08/2020 15:15:00     -0.000    -0.000     0.000     0.000
   01/08/2020 15:30:00     -0.000    -0.000     0.000     0.000
   01/08/2020 15:45:00     -0.000    -0.000     0.000     0.000
   01/08/2020 16:00:00     -0.000    -0.000     0.000     0.000
   01/08/2020 16:15:00     -0.000    -0.000     0.000     0.000
   01/08/2020 16:30:00     -0.000    -0.000     0.000     0.000
   01/08/2020 16:45:00     -0.000    -0.000     0.000     0.000
   01/08/2020 17:00:00     -0.000    -0.000     0.000     0.000
   01/08/2020 17:15:00     -0.000    -0.000     0.000     0.000
   01/08/2020 17:30:00     -0.000    -0.000     0.000     0.000
   01/08/2020 17:45:00     -0.000    -0.000     0.000     0.000
   01/08/2020 18:00:00     -0.000    -0.000     0.000     0.000
   01/08/2020 18:15:00     -0.000    -0.000     0.000     0.000
   01/08/2020 18:30:00     -0.000    -0.000     0.000     0.000
   01/08/2020 18:45:00     -0.000    -0.000     0.000     0.000
   01/08/2020 19:00:00     -0.000    -0.000     0.000     0.000
   01/08/2020 19:15:00     -0.000    -0.000     0.000     0.000
   01/08/2020 19:30:00     -0.000    -0.000     0.000     0.000
   01/08/2020 19:45:00     -0.000    -0.000     0.000     0.000
   01/08/2020 20:00:00     -0.000    -0.000     0.000     0.000
   01/08/2020 20:15:00     -0.000    -0.000     0.000     0.000
   01/08/2020 20:30:00     -0.000    -0.000     0.000     0.000
   01/08/2020 20:45:00     -0.000    -0.000     0.000     0.000
   01/08/2020 21:00:00     -0.000    -0.000     0.000     0.000
   01/08/2020 21:15:00     -0.000    -0.000     0.000     0.000
   01/08/2020 21:30:00     -0.000    -0.000     0.000     0.000
   01/08/2020 21:45:00     -0.000    -0.000     0.000     0.000
   01/08/2020 22:00:00     -0.000    -0.000     0.000     0.000
   01/08/2020 22:15:00     -0.000    -0.000     0.000     0.000
   01/08/2020 22:30:00     -0.000    -0.000     0.000     0.000
   01/08/2020 22:45:00     -0.000    -0.000     0.000     0.000
   01/08/2020 23:00:00     -0.000    -0.000     0.000     0.000
   01/08/2020 23:15:00     -0.000    -0.000     0.000     0.000
   01/08/2020 23:30:00     -0.000    -0.000     0.000     0.000
   01/08/2020 23:45:00     -0.000    -0.000     0.000     0.000
   01/09/2020 00:00:00     -0.000    -0.000     0.000     0.000
  

  Analysis begun on:  Wed Dec 29 11:48:36 2021
  Analysis ended on:  Wed Dec 29 11:50:48 2021
  Total elapsed time: 00:02:12