
  EPA STORM WATER MANAGEMENT MODEL - VERSION 5.1 (Build 5.1.015)
  --------------------------------------------------------------

  WARNING 04: minimum elevation drop used for Conduit 28
  WARNING 04: minimum elevation drop used for Conduit 39
  WARNING 04: minimum elevation drop used for Conduit 43
  WARNING 04: minimum elevation drop used for Conduit 48
  WARNING 04: minimum elevation drop used for Conduit 76
  WARNING 04: minimum elevation drop used for Conduit 78
  WARNING 04: minimum elevation drop used for Conduit 80
  WARNING 04: minimum elevation drop used for Conduit 85
  WARNING 08: elevation drop exceeds length for Conduit 92
  WARNING 04: minimum elevation drop used for Conduit 147
  WARNING 02: maximum depth increased for Node 1
  WARNING 02: maximum depth increased for Node 2
  WARNING 02: maximum depth increased for Node 70
  WARNING 02: maximum depth increased for Node 72
  WARNING 02: maximum depth increased for Node 91
  
  *********************************************************
  NOTE: The summary statistics displayed in this report are
  based on results found at every computational time step,  
  not just on results from each reporting time step.
  *********************************************************
  
  ****************
  Analysis Options
  ****************
  Flow Units ............... CFS
  Process Models:
    Rainfall/Runoff ........ NO
    RDII ................... NO
    Snowmelt ............... NO
    Groundwater ............ NO
    Flow Routing ........... YES
    Ponding Allowed ........ YES
    Water Quality .......... NO
  Flow Routing Method ...... DYNWAVE
  Surcharge Method ......... EXTRAN
  Starting Date ............ 01/01/2020 00:00:00
  Ending Date .............. 01/09/2020 00:00:00
  Antecedent Dry Days ...... 0.0
  Report Time Step ......... 00:15:00
  Routing Time Step ........ 30.00 sec
  Variable Time Step ....... YES
  Maximum Trials ........... 10
  Number of Threads ........ 1
  Head Tolerance ........... 0.005000 ft
  
  
  **************************        Volume        Volume
  Flow Routing Continuity        acre-feet      10^6 gal
  **************************     ---------     ---------
  Dry Weather Inflow .......         0.000         0.000
  Wet Weather Inflow .......         0.000         0.000
  Groundwater Inflow .......         0.000         0.000
  RDII Inflow ..............         0.000         0.000
  External Inflow ..........     59548.564     19404.789
  External Outflow .........      4625.804      1507.387
  Flooding Loss ............     54383.576     17721.701
  Evaporation Loss .........         0.000         0.000
  Exfiltration Loss ........         0.000         0.000
  Initial Stored Volume ....        -0.306        -0.100
  Final Stored Volume ......       461.310       150.325
  Continuity Error (%) .....         0.130
  
  
  *************************
  Highest Continuity Errors
  *************************
  Node 3 (51.32%)
  Node 66 (10.15%)
  Node 45 (7.98%)
  Node 50 (6.91%)
  Node 20 (6.08%)
  
  
  ***************************
  Time-Step Critical Elements
  ***************************
  Link 103 (387.44%)
  Link 88 (298.22%)
  Link 6 (281.10%)
  Link 35 (100.38%)
  Link 8 (90.13%)
  
  
  ********************************
  Highest Flow Instability Indexes
  ********************************
  Link 20 (94)
  Link 85 (90)
  Link 39 (89)
  Link 48 (88)
  Link 40 (86)
  
  
  *************************
  Routing Time Step Summary
  *************************
  Minimum Time Step           :     4.58 sec
  Average Time Step           :    12.56 sec
  Maximum Time Step           :    30.00 sec
  Percent in Steady State     :    94.79
  Average Iterations per Step :     8.01
  Percent Not Converging      :   514.93
  Time Step Frequencies       :
     30.000 -  3.817 sec      :   100.00 %
      3.817 -  0.486 sec      :     0.00 %
      0.486 -  0.062 sec      :     0.00 %
      0.062 -  0.008 sec      :     0.00 %
      0.008 -  0.001 sec      :     0.00 %
  
  
  ******************
  Node Depth Summary
  ******************
  
  ---------------------------------------------------------------------------------
                                 Average  Maximum  Maximum  Time of Max    Reported
                                   Depth    Depth      HGL   Occurrence   Max Depth
  Node                 Type         Feet     Feet     Feet  days hr:min        Feet
  ---------------------------------------------------------------------------------
  1                    JUNCTION     0.00     0.00    10.01     0  00:00        0.00
  2                    JUNCTION     0.00     0.00     8.99     0  00:00        0.00
  3                    JUNCTION     6.15     6.15     2.93     7  15:41        6.15
  4                    JUNCTION     4.49     4.49     2.93     7  15:40        4.49
  5                    JUNCTION     0.00     0.00     8.59     7  14:00        0.00
  6                    JUNCTION     4.63     4.76     6.43     7  18:33        4.72
  7                    JUNCTION     8.56     8.72     6.46     7  15:28        8.66
  8                    JUNCTION    54.29    54.56     6.57     7  16:53       54.46
  9                    JUNCTION    54.26    54.55     6.59     7  16:57       54.46
  10                   JUNCTION    82.17    82.48     6.61     7  15:27       82.43
  11                   JUNCTION    92.11    92.58     6.77     7  15:27       92.47
  12                   JUNCTION    24.73    25.29     6.86     7  15:49       25.16
  13                   JUNCTION    18.10    18.69     6.89     7  15:49       18.54
  14                   JUNCTION    18.00    18.58     6.89     7  15:49       18.44
  15                   JUNCTION    30.79    31.26     6.78     7  19:44       31.21
  16                   JUNCTION    14.23    14.68     6.76     7  19:44       14.64
  19                   JUNCTION    25.64    25.78     6.98     8  00:00       25.78
  20                   JUNCTION    30.64    30.76     6.96     7  22:08       30.72
  21                   JUNCTION    27.84    27.95     6.95     7  17:14       27.91
  22                   JUNCTION    19.34    19.42     6.92     7  17:24       19.39
  23                   JUNCTION    12.04    12.09     6.89     7  18:52       12.07
  24                   JUNCTION     0.34     0.39     6.89     7  18:44        0.37
  25                   JUNCTION     0.17     0.18     6.48     7  18:48        0.18
  26                   JUNCTION    17.90    18.03     6.43     7  18:33       17.98
  27                   JUNCTION    18.20    18.30     6.40     7  18:34       18.26
  28                   JUNCTION    14.30    14.40     6.40     7  18:34       14.36
  29                   JUNCTION    14.30    14.39     6.39     7  18:35       14.35
  30                   JUNCTION    28.00    28.09     6.39     7  18:37       28.07
  31                   JUNCTION    28.10    28.20     6.40     7  18:36       28.17
  32                   JUNCTION    53.90    54.02     6.42     7  18:28       53.97
  33                   JUNCTION    50.79    50.94     6.44     7  21:11       50.89
  34                   JUNCTION    17.99    18.11     6.41     7  18:37       18.09
  35                   JUNCTION     0.00     0.00    21.17     0  00:00        0.00
  36                   JUNCTION     1.54     1.59     6.89     7  18:48        1.58
  37                   JUNCTION     1.44     1.48     6.88     7  18:49        1.47
  38                   JUNCTION    19.84    19.88     6.88     7  18:45       19.88
  39                   JUNCTION    20.14    20.21     6.91     7  18:24       20.18
  40                   JUNCTION    41.04    41.18     6.98     8  00:00       41.18
  41                   JUNCTION    41.04    41.16     6.96     8  00:00       41.16
  42                   JUNCTION    68.34    68.46     6.96     7  14:17       68.44
  43                   JUNCTION    71.74    71.85     6.95     7  15:35       71.80
  44                   JUNCTION    33.04    33.09     6.89     7  18:32       33.07
  45                   JUNCTION    33.04    33.09     6.89     7  22:27       33.07
  46                   JUNCTION    23.24    23.33     6.93     7  16:57       23.28
  47                   JUNCTION    23.34    23.43     6.93     7  22:14       23.40
  48                   JUNCTION    34.64    34.74     6.94     7  16:47       34.71
  49                   JUNCTION    21.14    21.24     6.94     7  16:47       21.19
  50                   JUNCTION    21.14    21.24     6.94     7  23:20       21.22
  51                   JUNCTION    17.34    17.42     6.92     7  18:36       17.39
  52                   JUNCTION     3.84     3.90     6.90     7  18:39        3.89
  53                   JUNCTION     0.00     0.00   -22.10     0  00:00        0.00
  54                   JUNCTION     0.00     0.00    -0.90     0  00:00        0.00
  55                   JUNCTION     0.00     0.00     0.00     0  00:00        0.00
  56                   JUNCTION     0.00     0.00   -13.70     0  00:00        0.00
  57                   JUNCTION     0.00     0.00   -13.20     0  00:00        0.00
  58                   JUNCTION     0.00     0.00   -20.50     0  00:00        0.00
  59                   JUNCTION     0.00     0.00   -20.60     0  00:00        0.00
  60                   JUNCTION     0.00     0.00     7.19     0  00:00        0.00
  61                   JUNCTION     0.00     0.00    12.80     0  00:00        0.00
  62                   JUNCTION     0.00     0.00    15.00     0  00:00        0.00
  63                   JUNCTION     0.00     0.00    22.00     0  00:00        0.00
  64                   JUNCTION     0.00     0.00    18.00     0  00:00        0.00
  65                   JUNCTION     0.00     0.00    11.00     0  00:00        0.00
  66                   JUNCTION     9.30     9.39     6.39     7  18:36        9.36
  67                   JUNCTION    12.00    12.09     6.39     7  18:36       12.06
  70                   JUNCTION    32.30    32.41     6.41     7  18:37       32.35
  71                   JUNCTION    17.49    17.61     6.42     7  18:38       17.57
  72                   JUNCTION     0.00     0.00   -16.30     0  00:00        0.00
  73                   JUNCTION     0.00     0.00   -17.00     0  00:00        0.00
  74                   JUNCTION     0.00     0.00    -5.00     0  00:00        0.00
  75                   JUNCTION     0.00     0.00   -11.90     0  00:00        0.00
  76                   JUNCTION     0.00     0.00    -3.00     0  00:00        0.00
  77                   JUNCTION     0.00     0.00    -6.25     0  00:00        0.00
  78                   JUNCTION     0.00     0.00   -19.70     0  00:00        0.00
  79                   JUNCTION     0.00     0.00   -19.70     0  00:00        0.00
  80                   JUNCTION     0.00     0.00   -12.60     0  00:00        0.00
  81                   JUNCTION     0.00     0.00   -12.60     0  00:00        0.00
  82                   JUNCTION     0.00     0.00    -5.00     0  00:00        0.00
  83                   JUNCTION    22.94    23.09     6.99     8  00:00       23.09
  84                   JUNCTION    22.95    23.06     6.96     8  00:00       23.06
  85                   JUNCTION    50.55    50.63     6.93     7  18:04       50.58
  86                   JUNCTION    58.15    58.22     6.92     7  18:51       58.19
  87                   JUNCTION    46.85    46.90     6.90     7  18:32       46.88
  88                   JUNCTION    43.85    43.93     6.93     7  23:01       43.89
  89                   JUNCTION    43.85    43.93     6.93     7  21:48       43.91
  90                   JUNCTION    29.85    29.94     6.94     7  18:20       29.90
  91                   JUNCTION    11.65    11.71     6.91     7  23:29       11.70
  92                   JUNCTION     7.65     7.71     6.91     7  18:21        7.70
  18                   JUNCTION     0.00     0.00   -16.30     0  00:00        0.00
  100                  JUNCTION     0.00     0.00   -28.62     0  00:00        0.00
  102                  JUNCTION     0.00     0.00   -25.64     0  00:00        0.00
  103                  JUNCTION     0.00     0.00   -22.38     0  00:00        0.00
  104                  JUNCTION     0.00     0.00   -22.37     0  00:00        0.00
  105                  JUNCTION     0.00     0.00   -20.44     0  00:00        0.00
  106                  JUNCTION     0.00     0.00   -12.12     0  00:00        0.00
  107                  JUNCTION     0.00     0.00   -14.89     0  00:00        0.00
  108                  JUNCTION     0.00     0.00    -6.80     0  00:00        0.00
  109                  JUNCTION     0.00     0.00   -20.88     0  00:00        0.00
  110                  JUNCTION     0.00     0.00   -20.91     0  00:00        0.00
  111                  JUNCTION     0.00     0.00   -20.98     0  00:00        0.00
  112                  JUNCTION     0.00     0.00   -21.00     0  00:00        0.00
  113                  JUNCTION     0.00     0.00   -80.80     0  00:00        0.00
  114                  JUNCTION     0.00     0.00   -83.18     0  00:00        0.00
  115                  JUNCTION     0.00     0.00   -71.75     0  00:00        0.00
  116                  JUNCTION     0.00     0.00   -71.87     0  00:00        0.00
  117                  JUNCTION     0.00     0.00   -98.50     0  00:00        0.00
  118                  JUNCTION     0.00     0.00   -22.98     0  00:00        0.00
  119                  JUNCTION     0.00     0.00   -20.15     0  00:00        0.00
  120                  JUNCTION     0.00     0.00   -17.42     0  00:00        0.00
  121                  JUNCTION     0.00     0.00    -3.19     0  00:00        0.00
  122                  JUNCTION     0.00     0.00    -3.43     0  00:00        0.00
  123                  JUNCTION     0.00     0.00   -10.64     0  00:00        0.00
  124                  JUNCTION     0.00     0.00    -6.50     0  00:00        0.00
  125                  JUNCTION     0.00     0.00    -7.20     0  00:00        0.00
  126                  JUNCTION     0.00     0.00   -19.38     0  00:00        0.00
  127                  JUNCTION     0.00     0.00   -11.21     0  00:00        0.00
  128                  JUNCTION     0.00     0.00   -11.70     0  00:00        0.00
  129                  JUNCTION     0.00     0.00   -14.32     0  00:00        0.00
  130                  JUNCTION     0.00     0.00    -5.69     0  00:00        0.00
  131                  JUNCTION     0.00     0.00    31.65     0  00:00        0.00
  132                  JUNCTION     0.00     0.00    31.36     0  00:00        0.00
  133                  JUNCTION     0.00     0.00    40.24     0  00:00        0.00
  134                  JUNCTION     0.00     0.00    44.72     0  00:00        0.00
  135                  JUNCTION     0.00     0.00    44.62     0  00:00        0.00
  136                  JUNCTION     0.00     0.00    44.35     0  00:00        0.00
  137                  JUNCTION     0.00     0.00    34.51     0  00:00        0.00
  138                  JUNCTION     0.00     0.00    52.23     0  00:00        0.00
  139                  JUNCTION     0.00     0.00    49.93     0  00:00        0.00
  140                  JUNCTION     0.00     0.00    45.20     0  00:00        0.00
  141                  JUNCTION     0.00     0.00    49.13     0  00:00        0.00
  142                  JUNCTION     0.00     0.00    40.05     0  00:00        0.00
  143                  JUNCTION     0.00     0.00    39.90     0  00:00        0.00
  148                  JUNCTION     0.00     0.00   -26.26     0  00:00        0.00
  68                   OUTFALL      0.00     0.00     6.50     0  00:00        0.00
  69                   OUTFALL      0.00     0.00     5.00     0  00:00        0.00
  93                   OUTFALL      0.00     0.00    13.89     0  00:00        0.00
  94                   OUTFALL      0.00     0.00    10.51     0  00:00        0.00
  95                   OUTFALL      0.08     0.08    12.78     8  00:00        0.08
  96                   OUTFALL      0.00     0.00    31.60     0  00:00        0.00
  97                   OUTFALL      0.00     0.00    17.55     0  00:00        0.00
  98                   OUTFALL      0.00     0.00    11.00     0  00:00        0.00
  99                   OUTFALL      0.26     0.73     6.83     7  15:49        0.54
  101                  OUTFALL      0.00     0.00    11.89     0  00:00        0.00
  144                  OUTFALL      0.00     0.00    32.22     0  00:00        0.00
  145                  OUTFALL      0.00     0.00     8.00     0  00:00        0.00
  146                  OUTFALL      0.00     0.00    39.90     0  00:00        0.00
  147                  OUTFALL      0.00     0.00    15.00     0  00:00        0.00
  
  
  *******************
  Node Inflow Summary
  *******************
  
  -------------------------------------------------------------------------------------------------
                                  Maximum  Maximum                  Lateral       Total        Flow
                                  Lateral    Total  Time of Max      Inflow      Inflow     Balance
                                   Inflow   Inflow   Occurrence      Volume      Volume       Error
  Node                 Type           CFS      CFS  days hr:min    10^6 gal    10^6 gal     Percent
  -------------------------------------------------------------------------------------------------
  1                    JUNCTION      0.00     0.00     0  00:00           0           0       0.000 gal
  2                    JUNCTION      0.00     0.00     0  00:00           0           0       0.000 gal
  3                    JUNCTION      0.00     0.00     7  15:40           0        13.9     105.434
  4                    JUNCTION      0.00     0.00     7  15:39           0        14.4       4.011
  5                    JUNCTION      0.00     0.00     0  00:00           0        8.31      -0.220
  6                    JUNCTION      0.00    93.68     7  19:52           0         212       0.404
  7                    JUNCTION      0.00    69.35     7  16:57           0         198       0.543
  8                    JUNCTION      0.00    73.21     7  16:57           0         240       0.715
  9                    JUNCTION      0.00    57.50     7  19:45           0         257       0.240
  10                   JUNCTION      0.00    59.01     7  19:45           0         328       1.152
  11                   JUNCTION      0.00    56.15     7  19:45           0         543       0.781
  12                   JUNCTION      0.00    53.17     7  19:45           0         537       0.008
  13                   JUNCTION      0.00    53.67     7  19:58           0         536       0.037
  14                   JUNCTION      0.00    71.97     7  21:04           0         543       0.520
  15                   JUNCTION      0.00    77.77     7  16:56           0         549       0.578
  16                   JUNCTION      0.00   126.30     7  16:01           0    1.43e+04      -0.042
  19                   JUNCTION      0.00     6.59     7  18:36           0        72.6       5.862
  20                   JUNCTION      0.00    70.48     7  15:08           0          80       6.470
  21                   JUNCTION      0.00    18.06     7  14:42           0        85.1       4.397
  22                   JUNCTION      0.00    23.78     7  20:44           0        88.5       3.899
  23                   JUNCTION      0.00    22.35     7  17:00           0        97.4       1.743
  24                   JUNCTION      0.00    26.94     7  17:22           0         215      -0.002
  25                   JUNCTION      0.00     8.63     7  18:44           0         123       0.032
  26                   JUNCTION      0.00   121.26     7  19:46           0         275       1.678
  27                   JUNCTION      0.00   110.35     7  19:47           0         208       1.785
  28                   JUNCTION      0.00   114.48     7  19:47           0         208       1.446
  29                   JUNCTION      0.00   114.27     7  19:48           0         223       1.275
  30                   JUNCTION      0.00    87.25     7  19:53           0         197       3.892
  31                   JUNCTION      0.00    99.30     7  20:48           0         537       1.184
  32                   JUNCTION      0.00    28.21     7  20:29           0         449       0.628
  33                   JUNCTION      0.00    26.72     7  20:29           0         446       0.663
  34                   JUNCTION      0.00    26.30     7  14:40           0         586       0.488
  35                   JUNCTION      0.00     0.00     0  00:00           0           0       0.000 gal
  36                   JUNCTION      0.00    14.55     7  23:30           0        25.6       1.947
  37                   JUNCTION      0.00    21.66     7  23:32           0        49.2       0.768
  38                   JUNCTION      0.00    40.52     7  23:56           0         241       2.554
  39                   JUNCTION      0.00    36.26     7  17:22           0         225       2.030
  40                   JUNCTION      0.00    42.90     7  20:53           0         301       3.797
  41                   JUNCTION      0.00    38.19     7  14:52           0        67.9       4.569
  42                   JUNCTION      0.00    11.54     7  15:13           0        64.3       5.186
  43                   JUNCTION      0.00    11.55     7  15:13           0        61.1       4.091
  44                   JUNCTION      0.00    15.68     7  15:21           0        58.7       5.007
  45                   JUNCTION      0.00    16.15     7  16:55           0        55.2       8.668
  46                   JUNCTION      0.00    17.18     7  16:55           0        49.5       7.341
  47                   JUNCTION      0.00    12.91     7  16:55           0        45.7       4.309
  48                   JUNCTION      0.00    12.44     7  21:20           0          44       4.660
  49                   JUNCTION      0.00    19.97     7  15:22           0        42.5       7.713
  50                   JUNCTION      0.00    19.20     7  16:12           0        39.9       7.423
  51                   JUNCTION      0.00    16.99     7  16:55           0        37.4       6.258
  52                   JUNCTION      0.00    19.59     7  16:55           0          31       1.201
  53                   JUNCTION      0.00     0.00     0  00:00           0           0       0.000 gal
  54                   JUNCTION      0.00     0.00     0  00:00           0           0       0.000 gal
  55                   JUNCTION      0.00     0.00     0  00:00           0           0       0.000 gal
  56                   JUNCTION      0.00     0.00     0  00:00           0           0       0.000 gal
  57                   JUNCTION      0.00     0.00     0  00:00           0           0       0.000 gal
  58                   JUNCTION      0.00     0.00     0  00:00           0           0       0.000 gal
  59                   JUNCTION      0.00     0.00     0  00:00           0           0       0.000 gal
  60                   JUNCTION      0.00     0.00     0  00:00           0           0       0.000 gal
  61                   JUNCTION      0.00     0.00     0  00:00           0           0       0.000 gal
  62                   JUNCTION      0.00     0.00     0  00:00           0           0       0.000 gal
  63                   JUNCTION      0.00     0.00     0  00:00           0           0       0.000 gal
  64                   JUNCTION      0.00     0.00     0  00:00           0           0       0.000 gal
  65                   JUNCTION      0.00     0.00     0  00:00           0           0       0.000 gal
  66                   JUNCTION      0.00    42.73     7  19:48           0        23.5      11.292
  67                   JUNCTION      0.00    81.08     7  19:48           0         115       2.590
  70                   JUNCTION      0.00    41.17     7  20:57           0         476       1.026
  71                   JUNCTION      0.00    34.83     7  15:19           0        38.4       7.265
  72                   JUNCTION      0.00     0.00     0  00:00           0           0       0.000 gal
  73                   JUNCTION      0.00     0.00     0  00:00           0           0       0.000 gal
  74                   JUNCTION      0.00     0.00     0  00:00           0           0       0.000 gal
  75                   JUNCTION      0.00     0.00     0  00:00           0           0       0.000 gal
  76                   JUNCTION      0.00     0.00     0  00:00           0           0       0.000 gal
  77                   JUNCTION      0.00     0.00     0  00:00           0           0       0.000 gal
  78                   JUNCTION      0.00     0.00     0  00:00           0           0       0.000 gal
  79                   JUNCTION      0.00     0.00     0  00:00           0           0       0.000 gal
  80                   JUNCTION      0.00     0.00     0  00:00           0           0       0.000 gal
  81                   JUNCTION      0.00     0.00     0  00:00           0           0       0.000 gal
  82                   JUNCTION      0.00     0.00     0  00:00           0           0       0.000 gal
  83                   JUNCTION      0.00    52.03     7  23:06           0         305       2.125
  84                   JUNCTION      0.00    57.09     7  23:59           0         310       1.814
  85                   JUNCTION      0.00    57.03     7  23:59           0         312       0.635
  86                   JUNCTION      0.00    63.59     7  23:59           0         313       0.555
  87                   JUNCTION      0.00    70.16     7  14:54           0         318       1.979
  88                   JUNCTION      0.00    61.85     7  14:55           0         320       1.721
  89                   JUNCTION      0.00    24.96     7  18:23           0         551       0.521
  90                   JUNCTION      0.00    24.59     7  18:23           0    1.75e+03       0.232
  91                   JUNCTION      0.00    21.41     7  18:22           0    4.42e+03       0.016
  92                   JUNCTION      0.00    13.12     7  19:04           0         941       0.079
  18                   JUNCTION      0.00     0.00     0  00:00           0           0       0.000 gal
  100                  JUNCTION      0.00     0.00     0  00:00           0           0       0.000 gal
  102                  JUNCTION      0.00     0.00     0  00:00           0           0       0.000 gal
  103                  JUNCTION      0.00     0.00     0  00:00           0           0       0.000 gal
  104                  JUNCTION      0.00     0.00     0  00:00           0           0       0.000 gal
  105                  JUNCTION      0.00     0.00     0  00:00           0           0       0.000 gal
  106                  JUNCTION      0.00     0.00     0  00:00           0           0       0.000 gal
  107                  JUNCTION      0.00     0.00     0  00:00           0           0       0.000 gal
  108                  JUNCTION      0.00     0.00     0  00:00           0           0       0.000 gal
  109                  JUNCTION      0.00     0.00     0  00:00           0           0       0.000 gal
  110                  JUNCTION      0.00     0.00     0  00:00           0           0       0.000 gal
  111                  JUNCTION      0.00     0.00     0  00:00           0           0       0.000 gal
  112                  JUNCTION      0.00     0.00     0  00:00           0           0       0.000 gal
  113                  JUNCTION      0.00     0.00     0  00:00           0           0       0.000 gal
  114                  JUNCTION      0.00     0.00     0  00:00           0           0       0.000 gal
  115                  JUNCTION      0.00     0.00     0  00:00           0           0       0.000 gal
  116                  JUNCTION      0.00     0.00     0  00:00           0           0       0.000 gal
  117                  JUNCTION      0.00     0.00     0  00:00           0           0       0.000 gal
  118                  JUNCTION      0.00     0.00     0  00:00           0           0       0.000 gal
  119                  JUNCTION      0.00     0.00     0  00:00           0           0       0.000 gal
  120                  JUNCTION      0.00     0.00     0  00:00           0           0       0.000 gal
  121                  JUNCTION      0.00     0.00     0  00:00           0           0       0.000 gal
  122                  JUNCTION      0.00     0.00     0  00:00           0           0       0.000 gal
  123                  JUNCTION      0.00     0.00     0  00:00           0           0       0.000 gal
  124                  JUNCTION      0.00     0.00     0  00:00           0           0       0.000 gal
  125                  JUNCTION      0.00     0.00     0  00:00           0           0       0.000 gal
  126                  JUNCTION      0.00     0.00     0  00:00           0           0       0.000 gal
  127                  JUNCTION      0.00     0.00     0  00:00           0           0       0.000 gal
  128                  JUNCTION      0.00     0.00     0  00:00           0           0       0.000 gal
  129                  JUNCTION      0.00     0.00     0  00:00           0           0       0.000 gal
  130                  JUNCTION      0.00     0.00     0  00:00           0           0       0.000 gal
  131                  JUNCTION      0.00     0.00     0  00:00           0           0       0.000 gal
  132                  JUNCTION      0.00     0.00     0  00:00           0           0       0.000 gal
  133                  JUNCTION      0.00     0.00     0  00:00           0           0       0.000 gal
  134                  JUNCTION      0.00     0.00     0  00:00           0           0       0.000 gal
  135                  JUNCTION      0.00     0.00     0  00:00           0           0       0.000 gal
  136                  JUNCTION      0.00     0.00     0  00:00           0           0       0.000 gal
  137                  JUNCTION      0.00     0.00     0  00:00           0           0       0.000 gal
  138                  JUNCTION      0.00     0.00     0  00:00           0           0       0.000 gal
  139                  JUNCTION      0.00     0.00     0  00:00           0           0       0.000 gal
  140                  JUNCTION      0.00     0.00     0  00:00           0           0       0.000 gal
  141                  JUNCTION      0.00     0.00     0  00:00           0           0       0.000 gal
  142                  JUNCTION      0.00     0.00     0  00:00           0           0       0.000 gal
  143                  JUNCTION      0.00     0.00     0  00:00           0           0       0.000 gal
  148                  JUNCTION      0.00     0.00     0  00:00           0           0       0.000 gal
  68                   OUTFALL       0.00     0.00     0  00:00           0           0       0.000 gal
  69                   OUTFALL       0.00     0.00     0  00:00           0           0       0.000 gal
  93                   OUTFALL       0.00     0.00     0  00:00           0           0       0.000 gal
  94                   OUTFALL       0.00     0.00     0  00:00           0        26.3       0.000
  95                   OUTFALL       0.00     7.94     8  00:00           0         938       0.000
  96                   OUTFALL       0.00     0.00     0  00:00           0           0       0.000 gal
  97                   OUTFALL       0.00     0.00     0  00:00           0           0       0.000 gal
  98                   OUTFALL       0.00     0.00     0  00:00           0        81.7       0.000
  99                   OUTFALL       0.00   171.25     7  15:49           0         501       0.000
  101                  OUTFALL       0.00     0.00     0  00:00           0           0       0.000 gal
  144                  OUTFALL       0.00     0.00     0  00:00           0           0       0.000 gal
  145                  OUTFALL       0.00     0.00     0  00:00           0           0       0.000 gal
  146                  OUTFALL       0.00     0.00     0  00:00           0           0       0.000 gal
  147                  OUTFALL       0.00     0.00     0  00:00           0           0       0.000 gal
  
  
  **********************
  Node Surcharge Summary
  **********************
  
  Surcharging occurs when water rises above the top of the highest conduit.
  ---------------------------------------------------------------------
                                               Max. Height   Min. Depth
                                   Hours       Above Crown    Below Rim
  Node                 Type      Surcharged           Feet         Feet
  ---------------------------------------------------------------------
  8                    JUNCTION       10.01         28.562        5.438
  9                    JUNCTION       10.01         28.550        5.450
  10                   JUNCTION       10.01         62.976        2.524
  11                   JUNCTION       10.01         73.075        2.425
  12                   JUNCTION       10.01          5.792        4.708
  13                   JUNCTION       10.01          1.689        6.311
  14                   JUNCTION       10.01          1.584        6.416
  15                   JUNCTION       10.01         14.257        8.743
  19                   JUNCTION       10.01         10.476        4.224
  20                   JUNCTION       10.01         12.757        9.243
  21                   JUNCTION       10.01          9.953       12.047
  22                   JUNCTION       10.01          3.420       20.580
  32                   JUNCTION       10.01         37.924       25.976
  33                   JUNCTION       10.01         34.837       29.063
  39                   JUNCTION       10.01          0.913       19.787
  40                   JUNCTION       10.01         21.876       18.824
  41                   JUNCTION       10.01         24.164       18.836
  42                   JUNCTION       10.01         51.464       11.536
  43                   JUNCTION       10.01         54.848        8.152
  46                   JUNCTION       10.01          6.633       26.667
  47                   JUNCTION       10.01          6.731       26.569
  48                   JUNCTION       10.01         19.036       25.264
  49                   JUNCTION       10.01          5.041       28.759
  50                   JUNCTION       10.01          5.044       28.756
  51                   JUNCTION       10.01          1.217       12.583
  83                   JUNCTION       10.01          8.088       11.912
  84                   JUNCTION       10.01          6.455       11.945
  85                   JUNCTION       10.01         34.026       19.374
  86                   JUNCTION       10.01         41.622       11.778
  89                   JUNCTION       10.01         27.326        6.074
  90                   JUNCTION       10.01         13.341       10.059
  
  
  *********************
  Node Flooding Summary
  *********************
  
  No nodes were flooded.
  
  
  ***********************
  Outfall Loading Summary
  ***********************
  
  -----------------------------------------------------------
                         Flow       Avg       Max       Total
                         Freq      Flow      Flow      Volume
  Outfall Node           Pcnt       CFS       CFS    10^6 gal
  -----------------------------------------------------------
  68                     0.00      0.00      0.00       0.000
  69                     0.00      0.00      0.00       0.000
  93                     0.00      0.00      0.00       0.000
  94                     0.00      0.00      0.00      26.299
  95                   100.00      7.90      7.94     938.187
  96                     0.00      0.00      0.00       0.000
  97                     0.00      0.00      0.00       0.000
  98                     0.00      0.00      0.00      81.668
  99                    98.33     36.72    171.25     500.690
  101                    0.00      0.00      0.00       0.000
  144                    0.00      0.00      0.00       0.000
  145                    0.00      0.00      0.00       0.000
  146                    0.00      0.00      0.00       0.000
  147                    0.00      0.00      0.00       0.000
  -----------------------------------------------------------
  System                14.17     44.62    179.12    1546.844
  
  
  ********************
  Link Flow Summary
  ********************
  
  -----------------------------------------------------------------------------
                                 Maximum  Time of Max   Maximum    Max/    Max/
                                  |Flow|   Occurrence   |Veloc|    Full    Full
  Link                 Type          CFS  days hr:min    ft/sec    Flow   Depth
  -----------------------------------------------------------------------------
  1                    CONDUIT      0.00     0  00:00      0.00    0.00    0.00
  2                    CONDUIT      0.00     0  00:00      0.00    0.00    0.19
  3                    CONDUIT      0.00     7  15:40      0.00    0.00    0.38
  4                    CONDUIT      0.00     0  00:00      0.00    0.00    0.14
  5                    CONDUIT      0.00     0  00:00      0.00    0.00    0.15
  6                    CONDUIT     71.99     7  19:46      0.33    0.01    0.42
  7                    CONDUIT     73.21     7  16:57      0.24    0.00    0.72
  8                    CONDUIT     63.34     7  17:13      0.08    0.03    1.00
  9                    CONDUIT     57.50     7  19:45      0.16    0.00    1.00
  10                   CONDUIT     59.01     7  19:45      0.16    0.01    1.00
  11                   CONDUIT     56.15     7  19:45      0.16    0.00    1.00
  12                   CONDUIT     53.67     7  19:58      0.10    0.00    1.00
  13                   CONDUIT     61.81     7  19:58      0.13    0.05    1.00
  14                   CONDUIT     77.77     7  16:56      0.16    0.01    1.00
  15                   CONDUIT    113.16     7  14:53      0.26    0.00    0.93
  19                   CONDUIT      6.67     7  16:48      0.01    0.00    1.00
  20                   CONDUIT     70.48     7  15:08      0.08    0.00    1.00
  21                   CONDUIT     18.97     7  16:48      0.04    0.00    1.00
  22                   CONDUIT     19.60     7  14:42      0.04    0.00    0.90
  23                   CONDUIT     14.63     7  16:47      0.11    0.00    0.33
  24                   CONDUIT      8.63     7  18:44      0.74    0.00    0.02
  25                   CONDUIT      8.16     7  18:48      0.03    0.00    0.30
  26                   CONDUIT    110.35     7  19:47      0.27    0.05    0.77
  27                   CONDUIT    114.48     7  19:47      0.17    0.01    0.86
  28                   CONDUIT    114.27     7  19:48      0.14    0.27    0.80
  29                   CONDUIT     48.58     7  19:53      0.12    0.00    0.94
  30                   CONDUIT     99.30     7  20:48      0.06    0.01    0.94
  31                   CONDUIT     28.21     7  20:29      0.07    0.00    1.00
  32                   CONDUIT     26.72     7  20:29      0.06    0.00    1.00
  33                   CONDUIT     26.30     7  14:40      0.06    0.00    1.00
  34                   CONDUIT      0.00     0  00:00      0.00    0.00    0.05
  35                   CONDUIT     14.55     7  23:30      0.16    0.00    0.06
  36                   CONDUIT     21.66     7  23:32      0.07    0.00    0.36
  37                   CONDUIT     40.52     7  23:56      0.04    0.01    1.00
  38                   CONDUIT     36.26     7  17:22      0.09    0.00    1.00
  39                   CONDUIT     30.78     7  20:53      0.03    0.09    1.00
  40                   CONDUIT     13.44     7  15:23      0.03    0.00    1.00
  41                   CONDUIT     11.55     7  15:13      0.05    0.01    1.00
  42                   CONDUIT     11.77     7  15:14      0.05    0.00    1.00
  43                   CONDUIT     15.75     7  15:14      0.03    0.09    0.98
  44                   CONDUIT     16.15     7  16:55      0.04    0.00    1.00
  45                   CONDUIT     17.18     7  16:55      0.04    0.02    1.00
  46                   CONDUIT     12.91     7  16:55      0.04    0.00    1.00
  47                   CONDUIT     12.44     7  21:20      0.03    0.00    1.00
  48                   CONDUIT     19.97     7  15:22      0.02    0.06    1.00
  49                   CONDUIT     16.99     7  16:55      0.05    0.00    1.00
  50                   CONDUIT     19.59     7  16:55      0.06    0.00    0.62
  51                   CONDUIT      0.00     0  00:00      0.00    0.00    0.00
  52                   CONDUIT      0.00     0  00:00      0.00    0.00    0.00
  53                   CONDUIT      0.00     0  00:00      0.00    0.00    0.00
  54                   CONDUIT      0.00     0  00:00      0.00    0.00    0.00
  55                   CONDUIT      0.00     0  00:00      0.00    0.00    0.00
  56                   CONDUIT      0.00     0  00:00      0.00    0.00    0.00
  57                   CONDUIT      0.00     0  00:00      0.00    0.00    0.00
  58                   CONDUIT      0.00     0  00:00      0.00    0.00    0.00
  59                   CONDUIT      0.00     0  00:00      0.00    0.00    0.00
  60                   CONDUIT      0.00     0  00:00      0.00    0.00    0.00
  61                   CONDUIT      0.00     0  00:00      0.00    0.00    0.00
  62                   CONDUIT      0.00     0  00:00      0.00    0.00    0.00
  63                   CONDUIT      0.00     0  00:00      0.00    0.00    0.30
  64                   CONDUIT     42.73     7  19:48      0.05    0.00    0.64
  65                   CONDUIT     41.05     7  17:36      0.09    0.00    0.85
  67                   CONDUIT     34.75     7  19:52      0.07    0.00    0.87
  68                   CONDUIT     39.93     7  23:05      0.04    0.00    1.00
  69                   CONDUIT      0.00     0  00:00      0.00    0.00    0.00
  70                   CONDUIT      0.00     0  00:00      0.00    0.00    0.00
  71                   CONDUIT      0.00     0  00:00      0.00    0.00    0.00
  72                   CONDUIT      0.00     0  00:00      0.00    0.00    0.00
  73                   CONDUIT      0.00     0  00:00      0.00    0.00    0.00
  74                   CONDUIT      0.00     0  00:00      0.00    0.00    0.00
  75                   CONDUIT      0.00     0  00:00      0.00    0.00    0.00
  76                   CONDUIT      0.00     0  00:00      0.00    0.00    0.00
  77                   CONDUIT      0.00     0  00:00      0.00    0.00    0.00
  78                   CONDUIT      0.00     0  00:00      0.00    0.00    0.00
  79                   CONDUIT      0.00     0  00:00      0.00    0.00    0.00
  80                   CONDUIT     52.03     7  23:06      0.03    0.09    1.00
  81                   CONDUIT     57.09     7  23:59      0.11    0.00    1.00
  82                   CONDUIT     57.03     7  23:59      0.11    0.00    1.00
  83                   CONDUIT     63.59     7  23:59      0.13    0.00    1.00
  84                   CONDUIT     70.16     7  14:54      0.04    0.00    0.91
  85                   CONDUIT     30.14     7  23:05      0.06    0.17    1.00
  86                   CONDUIT     24.96     7  18:23      0.05    0.00    1.00
  87                   CONDUIT     24.59     7  18:23      0.06    0.00    0.85
  88                   CONDUIT     21.41     7  18:22      0.15    0.00    0.24
  89                   CONDUIT      0.00     0  00:00      0.00    0.00    0.11
  90                   CONDUIT     26.94     7  17:22      0.07    0.00    0.51
  91                   CONDUIT     42.13     7  23:31      0.03    0.00    1.00
  92                   CONDUIT      0.00     0  00:00      0.00    0.00    0.31
  93                   CONDUIT    114.72     7  19:46      0.22    0.00    0.66
  94                   CONDUIT     81.08     7  19:48      0.45    0.02    1.00
  95                   CONDUIT      0.00     0  00:00      0.00    0.00    0.00
  96                   CONDUIT      0.00     0  00:00      0.00    0.00    0.00
  97                   CONDUIT      0.00     0  00:00      0.00    0.00    0.00
  98                   CONDUIT      0.00     0  00:00      0.00    0.00    0.00
  99                   CONDUIT      0.00     0  00:00      0.00    0.00    0.10
  100                  CONDUIT      7.94     8  00:00      0.05    0.00    0.13
  101                  CONDUIT      0.00     0  00:00      0.00    0.00    0.00
  102                  CONDUIT      0.00     0  00:00      0.00    0.00    0.29
  103                  CONDUIT    171.25     7  15:49      0.78    0.01    0.38
  104                  CONDUIT      0.00     0  00:00      0.00    0.00    0.36
  17                   CONDUIT      0.00     0  00:00      0.00    0.00    0.00
  18                   CONDUIT      0.00     0  00:00      0.00    0.00    0.00
  66                   CONDUIT      0.00     0  00:00      0.00    0.00    0.00
  105                  CONDUIT      0.00     0  00:00      0.00    0.00    0.00
  106                  CONDUIT      0.00     0  00:00      0.00    0.00    0.00
  107                  CONDUIT      0.00     0  00:00      0.00    0.00    0.00
  108                  CONDUIT      0.00     0  00:00      0.00    0.00    0.00
  109                  CONDUIT      0.00     0  00:00      0.00    0.00    0.00
  110                  CONDUIT      0.00     0  00:00      0.00    0.00    0.00
  111                  CONDUIT      0.00     0  00:00      0.00    0.00    0.00
  112                  CONDUIT      0.00     0  00:00      0.00    0.00    0.00
  113                  CONDUIT      0.00     0  00:00      0.00    0.00    0.00
  114                  CONDUIT      0.00     0  00:00      0.00    0.00    0.00
  115                  CONDUIT      0.00     0  00:00      0.00    0.00    0.00
  116                  CONDUIT      0.00     0  00:00      0.00    0.00    0.00
  117                  CONDUIT      0.00     0  00:00      0.00    0.00    0.00
  118                  CONDUIT      0.00     0  00:00      0.00    0.00    0.00
  119                  CONDUIT      0.00     0  00:00      0.00    0.00    0.00
  120                  CONDUIT      0.00     0  00:00      0.00    0.00    0.00
  121                  CONDUIT      0.00     0  00:00      0.00    0.00    0.00
  122                  CONDUIT      0.00     0  00:00      0.00    0.00    0.00
  123                  CONDUIT      0.00     0  00:00      0.00    0.00    0.00
  124                  CONDUIT      0.00     0  00:00      0.00    0.00    0.00
  125                  CONDUIT      0.00     0  00:00      0.00    0.00    0.00
  126                  CONDUIT      0.00     0  00:00      0.00    0.00    0.00
  127                  CONDUIT      0.00     0  00:00      0.00    0.00    0.00
  128                  CONDUIT      0.00     0  00:00      0.00    0.00    0.00
  129                  CONDUIT      0.00     0  00:00      0.00    0.00    0.00
  130                  CONDUIT      0.00     0  00:00      0.00    0.00    0.00
  131                  CONDUIT      0.00     0  00:00      0.00    0.00    0.00
  132                  CONDUIT      0.00     0  00:00      0.00    0.00    0.00
  133                  CONDUIT      0.00     0  00:00      0.00    0.00    0.00
  134                  CONDUIT      0.00     0  00:00      0.00    0.00    0.00
  135                  CONDUIT      0.00     0  00:00      0.00    0.00    0.00
  136                  CONDUIT      0.00     0  00:00      0.00    0.00    0.00
  137                  CONDUIT      0.00     0  00:00      0.00    0.00    0.00
  138                  CONDUIT      0.00     0  00:00      0.00    0.00    0.00
  139                  CONDUIT      0.00     0  00:00      0.00    0.00    0.00
  140                  CONDUIT      0.00     0  00:00      0.00    0.00    0.00
  141                  CONDUIT      0.00     0  00:00      0.00    0.00    0.00
  142                  CONDUIT      0.00     0  00:00      0.00    0.00    0.00
  143                  CONDUIT      0.00     0  00:00      0.00    0.00    0.00
  145                  CONDUIT      0.00     0  00:00      0.00    0.00    0.00
  146                  CONDUIT      0.00     0  00:00      0.00    0.00    0.00
  147                  CONDUIT      0.00     0  00:00      0.00    0.00    0.00
  148                  CONDUIT      0.00     0  00:00      0.00    0.00    0.50
  149                  CONDUIT      0.00     0  00:00      0.00    0.00    0.00
  
  
  ***************************
  Flow Classification Summary
  ***************************
  
  -------------------------------------------------------------------------------------
                      Adjusted    ---------- Fraction of Time in Flow Class ---------- 
                       /Actual         Up    Down  Sub   Sup   Up    Down  Norm  Inlet 
  Conduit               Length    Dry  Dry   Dry   Crit  Crit  Crit  Crit  Ltd   Ctrl  
  -------------------------------------------------------------------------------------
  1                       1.00   1.00  0.00  0.00  0.00  0.00  0.00  0.00  0.00  0.00
  2                       1.00   0.00  1.00  0.00  0.00  0.00  0.00  0.00  0.00  0.00
  3                       1.00   0.00  0.00  0.00  1.00  0.00  0.00  0.00  0.00  0.00
  4                       1.00   0.00  1.00  0.00  0.00  0.00  0.00  0.00  0.05  0.00
  5                       1.16   0.00  1.00  0.00  0.00  0.00  0.00  0.00  0.05  0.00
  6                       1.00   0.00  0.00  0.00  1.00  0.00  0.00  0.00  0.00  0.00
  7                       1.00   0.00  0.00  0.00  1.00  0.00  0.00  0.00  0.00  0.00
  8                       1.00   0.00  0.00  0.00  1.00  0.00  0.00  0.00  0.00  0.00
  9                       1.00   0.00  0.00  0.00  1.00  0.00  0.00  0.00  0.00  0.00
  10                      1.00   0.00  0.00  0.00  1.00  0.00  0.00  0.00  0.00  0.00
  11                      1.00   0.00  0.00  0.00  1.00  0.00  0.00  0.00  0.00  0.00
  12                      1.00   0.00  0.00  0.00  1.00  0.00  0.00  0.00  0.00  0.00
  13                      1.00   0.00  0.00  0.00  1.00  0.00  0.00  0.00  0.00  0.00
  14                      1.00   0.00  0.00  0.00  1.00  0.00  0.00  0.00  0.00  0.00
  15                      1.12   0.00  0.00  0.00  1.00  0.00  0.00  0.00  0.00  0.00
  19                      1.00   0.00  0.00  0.00  1.00  0.00  0.00  0.00  0.00  0.00
  20                      1.00   0.00  0.00  0.00  1.00  0.00  0.00  0.00  0.00  0.00
  21                      1.00   0.00  0.00  0.00  1.00  0.00  0.00  0.00  0.00  0.00
  22                      1.00   0.00  0.00  0.00  1.00  0.00  0.00  0.00  0.00  0.00
  23                      1.00   0.00  0.00  0.00  1.00  0.00  0.00  0.00  0.00  0.00
  24                      1.00   0.00  0.00  0.00  1.00  0.00  0.00  0.00  0.00  0.00
  25                      1.49   0.00  0.00  0.00  1.00  0.00  0.00  0.00  0.05  0.00
  26                      1.00   0.00  0.00  0.00  1.00  0.00  0.00  0.00  0.00  0.00
  27                      1.00   0.00  0.00  0.00  1.00  0.00  0.00  0.00  0.00  0.00
  28                      1.00   0.00  0.00  0.00  1.00  0.00  0.00  0.00  0.00  0.00
  29                      1.00   0.00  0.00  0.00  1.00  0.00  0.00  0.00  0.00  0.00
  30                      1.00   0.00  0.00  0.00  1.00  0.00  0.00  0.00  0.00  0.00
  31                      1.00   0.00  0.00  0.00  1.00  0.00  0.00  0.00  0.00  0.00
  32                      1.00   0.00  0.00  0.00  1.00  0.00  0.00  0.00  0.00  0.00
  33                      1.00   0.00  0.00  0.00  1.00  0.00  0.00  0.00  0.00  0.00
  34                      1.00   0.00  1.00  0.00  0.00  0.00  0.00  0.00  0.00  0.00
  35                      1.00   0.00  0.00  0.00  1.00  0.00  0.00  0.00  0.00  0.00
  36                      1.00   0.00  0.00  0.00  1.00  0.00  0.00  0.00  0.00  0.00
  37                      1.00   0.00  0.00  0.00  1.00  0.00  0.00  0.00  0.00  0.00
  38                      1.00   0.00  0.00  0.00  1.00  0.00  0.00  0.00  0.00  0.00
  39                      1.00   0.00  0.00  0.00  1.00  0.00  0.00  0.00  0.00  0.00
  40                      1.00   0.00  0.00  0.00  1.00  0.00  0.00  0.00  0.00  0.00
  41                      1.00   0.00  0.00  0.00  1.00  0.00  0.00  0.00  0.00  0.00
  42                      1.00   0.00  0.00  0.00  1.00  0.00  0.00  0.00  0.00  0.00
  43                      1.00   0.00  0.00  0.00  1.00  0.00  0.00  0.00  0.00  0.00
  44                      1.00   0.00  0.00  0.00  1.00  0.00  0.00  0.00  0.00  0.00
  45                      1.00   0.00  0.00  0.00  1.00  0.00  0.00  0.00  0.00  0.00
  46                      1.03   0.00  0.00  0.00  1.00  0.00  0.00  0.00  0.00  0.00
  47                      1.00   0.00  0.00  0.00  1.00  0.00  0.00  0.00  0.00  0.00
  48                      1.00   0.00  0.00  0.00  1.00  0.00  0.00  0.00  0.00  0.00
  49                      1.00   0.00  0.00  0.00  1.00  0.00  0.00  0.00  0.00  0.00
  50                      1.00   0.00  0.00  0.00  1.00  0.00  0.00  0.00  0.00  0.00
  51                      1.00   1.00  0.00  0.00  0.00  0.00  0.00  0.00  0.00  0.00
  52                      1.00   1.00  0.00  0.00  0.00  0.00  0.00  0.00  0.00  0.00
  53                      1.00   1.00  0.00  0.00  0.00  0.00  0.00  0.00  0.00  0.00
  54                      1.00   1.00  0.00  0.00  0.00  0.00  0.00  0.00  0.00  0.00
  55                      1.00   1.00  0.00  0.00  0.00  0.00  0.00  0.00  0.00  0.00
  56                      1.00   1.00  0.00  0.00  0.00  0.00  0.00  0.00  0.00  0.00
  57                      1.00   1.00  0.00  0.00  0.00  0.00  0.00  0.00  0.00  0.00
  58                      1.00   1.00  0.00  0.00  0.00  0.00  0.00  0.00  0.00  0.00
  59                      1.00   1.00  0.00  0.00  0.00  0.00  0.00  0.00  0.00  0.00
  60                      1.00   1.00  0.00  0.00  0.00  0.00  0.00  0.00  0.00  0.00
  61                      1.00   1.00  0.00  0.00  0.00  0.00  0.00  0.00  0.00  0.00
  62                      1.04   1.00  0.00  0.00  0.00  0.00  0.00  0.00  0.00  0.00
  63                      1.00   0.00  1.00  0.00  0.00  0.00  0.00  0.00  0.00  0.00
  64                      1.00   0.00  0.00  0.00  1.00  0.00  0.00  0.00  0.00  0.00
  65                      1.00   0.00  0.00  0.00  1.00  0.00  0.00  0.00  0.00  0.00
  67                      1.00   0.00  0.00  0.00  1.00  0.00  0.00  0.00  0.00  0.00
  68                      1.95   0.00  0.00  0.00  1.00  0.00  0.00  0.00  0.00  0.00
  69                      3.49   1.00  0.00  0.00  0.00  0.00  0.00  0.00  0.00  0.00
  70                      1.00   1.00  0.00  0.00  0.00  0.00  0.00  0.00  0.00  0.00
  71                      1.63   1.00  0.00  0.00  0.00  0.00  0.00  0.00  0.00  0.00
  72                      1.00   1.00  0.00  0.00  0.00  0.00  0.00  0.00  0.00  0.00
  73                      1.00   1.00  0.00  0.00  0.00  0.00  0.00  0.00  0.00  0.00
  74                      1.00   1.00  0.00  0.00  0.00  0.00  0.00  0.00  0.00  0.00
  75                      1.00   1.00  0.00  0.00  0.00  0.00  0.00  0.00  0.00  0.00
  76                      1.00   1.00  0.00  0.00  0.00  0.00  0.00  0.00  0.00  0.00
  77                      1.00   1.00  0.00  0.00  0.00  0.00  0.00  0.00  0.00  0.00
  78                      1.00   1.00  0.00  0.00  0.00  0.00  0.00  0.00  0.00  0.00
  79                      1.00   1.00  0.00  0.00  0.00  0.00  0.00  0.00  0.00  0.00
  80                      1.00   0.00  0.00  0.00  1.00  0.00  0.00  0.00  0.00  0.00
  81                      1.00   0.00  0.00  0.00  1.00  0.00  0.00  0.00  0.00  0.00
  82                      1.00   0.00  0.00  0.00  1.00  0.00  0.00  0.00  0.00  0.00
  83                      1.00   0.00  0.00  0.00  1.00  0.00  0.00  0.00  0.00  0.00
  84                      1.00   0.00  0.00  0.00  1.00  0.00  0.00  0.00  0.00  0.00
  85                      1.00   0.00  0.00  0.00  1.00  0.00  0.00  0.00  0.00  0.00
  86                      1.00   0.00  0.00  0.00  1.00  0.00  0.00  0.00  0.00  0.00
  87                      1.00   0.00  0.00  0.00  1.00  0.00  0.00  0.00  0.00  0.00
  88                      1.04   0.00  0.00  0.00  1.00  0.00  0.00  0.00  0.00  0.00
  89                      1.00   0.00  1.00  0.00  0.00  0.00  0.00  0.00  0.00  0.00
  90                      9.81   0.00  0.00  0.00  1.00  0.00  0.00  0.00  0.00  0.00
  91                     40.90   0.00  0.00  0.00  1.00  0.00  0.00  0.00  0.00  0.00
  92                    776.95   0.00  1.00  0.00  0.00  0.00  0.00  0.00  0.00  0.00
  93                      8.28   0.00  0.00  0.00  1.00  0.00  0.00  0.00  0.00  0.00
  94                      1.46   0.00  0.00  0.00  1.00  0.00  0.00  0.00  0.00  0.00
  95                      1.00   1.00  0.00  0.00  0.00  0.00  0.00  0.00  0.00  0.00
  96                      1.93   1.00  0.00  0.00  0.00  0.00  0.00  0.00  0.00  0.00
  97                      1.21   1.00  0.00  0.00  0.00  0.00  0.00  0.00  0.00  0.00
  98                      1.20   1.00  0.00  0.00  0.00  0.00  0.00  0.00  0.00  0.00
  99                      1.35   0.00  1.00  0.00  0.00  0.00  0.00  0.00  0.05  0.00
  100                     1.54   0.00  0.00  0.00  1.00  0.00  0.00  0.00  0.05  0.00
  101                     1.00   1.00  0.00  0.00  0.00  0.00  0.00  0.00  0.00  0.00
  102                     1.16   0.00  1.00  0.00  0.00  0.00  0.00  0.00  0.00  0.00
  103                     1.00   0.00  0.02  0.00  0.98  0.00  0.00  0.00  0.02  0.00
  104                     1.00   0.00  1.00  0.00  0.00  0.00  0.00  0.00  0.05  0.00
  17                      1.00   1.00  0.00  0.00  0.00  0.00  0.00  0.00  0.00  0.00
  18                      1.00   1.00  0.00  0.00  0.00  0.00  0.00  0.00  0.00  0.00
  66                      1.00   1.00  0.00  0.00  0.00  0.00  0.00  0.00  0.00  0.00
  105                     1.00   1.00  0.00  0.00  0.00  0.00  0.00  0.00  0.00  0.00
  106                     1.00   1.00  0.00  0.00  0.00  0.00  0.00  0.00  0.00  0.00
  107                     1.00   1.00  0.00  0.00  0.00  0.00  0.00  0.00  0.00  0.00
  108                     1.00   1.00  0.00  0.00  0.00  0.00  0.00  0.00  0.00  0.00
  109                     1.00   1.00  0.00  0.00  0.00  0.00  0.00  0.00  0.00  0.00
  110                     1.00   1.00  0.00  0.00  0.00  0.00  0.00  0.00  0.00  0.00
  111                     1.00   1.00  0.00  0.00  0.00  0.00  0.00  0.00  0.00  0.00
  112                     1.00   1.00  0.00  0.00  0.00  0.00  0.00  0.00  0.00  0.00
  113                     1.31   1.00  0.00  0.00  0.00  0.00  0.00  0.00  0.00  0.00
  114                     1.00   1.00  0.00  0.00  0.00  0.00  0.00  0.00  0.00  0.00
  115                     1.00   1.00  0.00  0.00  0.00  0.00  0.00  0.00  0.00  0.00
  116                     1.00   1.00  0.00  0.00  0.00  0.00  0.00  0.00  0.00  0.00
  117                     1.00   1.00  0.00  0.00  0.00  0.00  0.00  0.00  0.00  0.00
  118                     1.00   1.00  0.00  0.00  0.00  0.00  0.00  0.00  0.00  0.00
  119                     1.00   1.00  0.00  0.00  0.00  0.00  0.00  0.00  0.00  0.00
  120                     1.00   1.00  0.00  0.00  0.00  0.00  0.00  0.00  0.00  0.00
  121                     1.00   1.00  0.00  0.00  0.00  0.00  0.00  0.00  0.00  0.00
  122                     1.00   1.00  0.00  0.00  0.00  0.00  0.00  0.00  0.00  0.00
  123                     1.27   1.00  0.00  0.00  0.00  0.00  0.00  0.00  0.00  0.00
  124                     1.00   1.00  0.00  0.00  0.00  0.00  0.00  0.00  0.00  0.00
  125                     1.00   1.00  0.00  0.00  0.00  0.00  0.00  0.00  0.00  0.00
  126                     1.00   1.00  0.00  0.00  0.00  0.00  0.00  0.00  0.00  0.00
  127                     1.00   1.00  0.00  0.00  0.00  0.00  0.00  0.00  0.00  0.00
  128                     1.00   1.00  0.00  0.00  0.00  0.00  0.00  0.00  0.00  0.00
  129                     1.00   1.00  0.00  0.00  0.00  0.00  0.00  0.00  0.00  0.00
  130                     1.00   1.00  0.00  0.00  0.00  0.00  0.00  0.00  0.00  0.00
  131                     1.00   1.00  0.00  0.00  0.00  0.00  0.00  0.00  0.00  0.00
  132                     1.85   1.00  0.00  0.00  0.00  0.00  0.00  0.00  0.00  0.00
  133                     1.00   1.00  0.00  0.00  0.00  0.00  0.00  0.00  0.00  0.00
  134                     1.00   1.00  0.00  0.00  0.00  0.00  0.00  0.00  0.00  0.00
  135                     1.12   1.00  0.00  0.00  0.00  0.00  0.00  0.00  0.00  0.00
  136                     1.00   1.00  0.00  0.00  0.00  0.00  0.00  0.00  0.00  0.00
  137                     1.00   1.00  0.00  0.00  0.00  0.00  0.00  0.00  0.00  0.00
  138                     1.00   1.00  0.00  0.00  0.00  0.00  0.00  0.00  0.00  0.00
  139                     1.00   1.00  0.00  0.00  0.00  0.00  0.00  0.00  0.00  0.00
  140                     1.33   1.00  0.00  0.00  0.00  0.00  0.00  0.00  0.00  0.00
  141                     1.18   1.00  0.00  0.00  0.00  0.00  0.00  0.00  0.00  0.00
  142                     1.00   1.00  0.00  0.00  0.00  0.00  0.00  0.00  0.00  0.00
  143                     1.00   1.00  0.00  0.00  0.00  0.00  0.00  0.00  0.00  0.00
  145                     1.00   1.00  0.00  0.00  0.00  0.00  0.00  0.00  0.00  0.00
  146                     2.31   1.00  0.00  0.00  0.00  0.00  0.00  0.00  0.00  0.00
  147                    90.89   1.00  0.00  0.00  0.00  0.00  0.00  0.00  0.00  0.00
  148                     2.61   0.00  1.00  0.00  0.00  0.00  0.00  0.00  0.00  0.00
  149                     1.00   1.00  0.00  0.00  0.00  0.00  0.00  0.00  0.00  0.00
  
  
  *************************
  Conduit Surcharge Summary
  *************************
  
  ----------------------------------------------------------------------------
                                                           Hours        Hours 
                         --------- Hours Full --------   Above Full   Capacity
  Conduit                Both Ends  Upstream  Dnstream   Normal Flow   Limited
  ----------------------------------------------------------------------------
  7                           0.01      0.01     10.01      0.01         0.01
  8                          10.01     10.01     10.01      0.01         1.77
  9                          10.01     10.01     10.01      0.01         0.01
  10                         10.01     10.01     10.01      0.01         0.01
  11                         10.01     10.01     10.01      0.01         0.01
  12                         10.01     10.01     10.01      0.01         0.01
  13                         10.01     10.01     10.01      0.01         0.01
  14                         10.01     10.01     10.01      0.01         0.01
  15                          0.01      0.01     10.01      0.01         0.01
  19                         10.01     10.01     10.01      0.01         0.01
  20                         10.01     10.01     10.01      0.01         0.01
  21                         10.01     10.01     10.01      0.01         0.01
  22                          0.01      0.01     10.01      0.01         0.01
  29                          0.01      0.01     10.01      0.01         0.01
  31                         10.01     10.01     10.01      0.01         0.01
  32                         10.01     10.01     10.01      0.01         0.01
  33                         10.01     10.01     10.01      0.01         0.01
  37                         10.01     10.01     10.01      0.01         0.01
  38                         10.01     10.01     10.01      0.01         0.01
  39                         10.01     10.01     10.01      0.01         4.99
  40                         10.01     10.01     10.01      0.01         0.01
  41                         10.01     10.01     10.01      0.01         0.01
  42                         10.01     10.01     10.01      0.01         0.01
  44                         10.01     10.01     10.01      0.01         0.01
  45                         10.01     10.01     10.01      0.01         0.01
  46                         10.01     10.01     10.01      0.01         0.01
  47                         10.01     10.01     10.01      0.01         0.01
  48                         10.01     10.01     10.01      0.01         4.70
  49                         10.01     10.01     10.01      0.01         0.01
  50                          0.01      0.01     10.01      0.01         0.01
  65                          0.01      0.01     10.01      0.01         0.01
  68                         10.01     10.01     10.01      0.01         0.01
  80                         10.01     10.01     10.01      0.01         4.06
  81                         10.01     10.01     10.01      0.01         0.01
  82                         10.01     10.01     10.01      0.01         0.01
  83                         10.01     10.01     10.01      0.01         0.01
  85                         10.01     10.01     10.01      0.01         5.45
  86                         10.01     10.01     10.01      0.01         0.01
  87                          0.01      0.01     10.01      0.01         0.01
  90                          0.01      0.01     10.01      0.01         0.01
  91                         10.01     10.01     10.01      0.01         0.01
  93                          0.01      0.01     10.01      0.01         0.01
  94                         10.01     10.01     10.01      0.01         0.01
  
  
  ************
  Node Results
  ************
  
  <<< Node 1 >>>
  ----------------------------------------------------------------
                           Inflow  Flooding     Depth      Head
  Date        Time            CFS       CFS      feet      feet
  ----------------------------------------------------------------
   01/08/2020 14:00:00      0.000     0.000     0.000    10.010
   01/08/2020 14:15:00      0.000     0.000     0.000    10.010
   01/08/2020 14:30:00      0.000     0.000     0.000    10.010
   01/08/2020 14:45:00      0.000     0.000     0.000    10.010
   01/08/2020 15:00:00      0.000     0.000     0.000    10.010
   01/08/2020 15:15:00      0.000     0.000     0.000    10.010
   01/08/2020 15:30:00      0.000     0.000     0.000    10.010
   01/08/2020 15:45:00      0.000     0.000     0.000    10.010
   01/08/2020 16:00:00      0.000     0.000     0.000    10.010
   01/08/2020 16:15:00      0.000     0.000     0.000    10.010
   01/08/2020 16:30:00      0.000     0.000     0.000    10.010
   01/08/2020 16:45:00      0.000     0.000     0.000    10.010
   01/08/2020 17:00:00      0.000     0.000     0.000    10.010
   01/08/2020 17:15:00      0.000     0.000     0.000    10.010
   01/08/2020 17:30:00      0.000     0.000     0.000    10.010
   01/08/2020 17:45:00      0.000     0.000     0.000    10.010
   01/08/2020 18:00:00      0.000     0.000     0.000    10.010
   01/08/2020 18:15:00      0.000     0.000     0.000    10.010
   01/08/2020 18:30:00      0.000     0.000     0.000    10.010
   01/08/2020 18:45:00      0.000     0.000     0.000    10.010
   01/08/2020 19:00:00      0.000     0.000     0.000    10.010
   01/08/2020 19:15:00      0.000     0.000     0.000    10.010
   01/08/2020 19:30:00      0.000     0.000     0.000    10.010
   01/08/2020 19:45:00      0.000     0.000     0.000    10.010
   01/08/2020 20:00:00      0.000     0.000     0.000    10.010
   01/08/2020 20:15:00      0.000     0.000     0.000    10.010
   01/08/2020 20:30:00      0.000     0.000     0.000    10.010
   01/08/2020 20:45:00      0.000     0.000     0.000    10.010
   01/08/2020 21:00:00      0.000     0.000     0.000    10.010
   01/08/2020 21:15:00      0.000     0.000     0.000    10.010
   01/08/2020 21:30:00      0.000     0.000     0.000    10.010
   01/08/2020 21:45:00      0.000     0.000     0.000    10.010
   01/08/2020 22:00:00      0.000     0.000     0.000    10.010
   01/08/2020 22:15:00      0.000     0.000     0.000    10.010
   01/08/2020 22:30:00      0.000     0.000     0.000    10.010
   01/08/2020 22:45:00      0.000     0.000     0.000    10.010
   01/08/2020 23:00:00      0.000     0.000     0.000    10.010
   01/08/2020 23:15:00      0.000     0.000     0.000    10.010
   01/08/2020 23:30:00      0.000     0.000     0.000    10.010
   01/08/2020 23:45:00      0.000     0.000     0.000    10.010
   01/09/2020 00:00:00      0.000     0.000     0.000    10.010
  
  
  <<< Node 2 >>>
  ----------------------------------------------------------------
                           Inflow  Flooding     Depth      Head
  Date        Time            CFS       CFS      feet      feet
  ----------------------------------------------------------------
   01/08/2020 14:00:00      0.000     0.000     0.000     8.990
   01/08/2020 14:15:00      0.000     0.000     0.000     8.990
   01/08/2020 14:30:00      0.000     0.000     0.000     8.990
   01/08/2020 14:45:00      0.000     0.000     0.000     8.990
   01/08/2020 15:00:00      0.000     0.000     0.000     8.990
   01/08/2020 15:15:00      0.000     0.000     0.000     8.990
   01/08/2020 15:30:00      0.000     0.000     0.000     8.990
   01/08/2020 15:45:00      0.000     0.000     0.000     8.990
   01/08/2020 16:00:00      0.000     0.000     0.000     8.990
   01/08/2020 16:15:00      0.000     0.000     0.000     8.990
   01/08/2020 16:30:00      0.000     0.000     0.000     8.990
   01/08/2020 16:45:00      0.000     0.000     0.000     8.990
   01/08/2020 17:00:00      0.000     0.000     0.000     8.990
   01/08/2020 17:15:00      0.000     0.000     0.000     8.990
   01/08/2020 17:30:00      0.000     0.000     0.000     8.990
   01/08/2020 17:45:00      0.000     0.000     0.000     8.990
   01/08/2020 18:00:00      0.000     0.000     0.000     8.990
   01/08/2020 18:15:00      0.000     0.000     0.000     8.990
   01/08/2020 18:30:00      0.000     0.000     0.000     8.990
   01/08/2020 18:45:00      0.000     0.000     0.000     8.990
   01/08/2020 19:00:00      0.000     0.000     0.000     8.990
   01/08/2020 19:15:00      0.000     0.000     0.000     8.990
   01/08/2020 19:30:00      0.000     0.000     0.000     8.990
   01/08/2020 19:45:00      0.000     0.000     0.000     8.990
   01/08/2020 20:00:00      0.000     0.000     0.000     8.990
   01/08/2020 20:15:00      0.000     0.000     0.000     8.990
   01/08/2020 20:30:00      0.000     0.000     0.000     8.990
   01/08/2020 20:45:00      0.000     0.000     0.000     8.990
   01/08/2020 21:00:00      0.000     0.000     0.000     8.990
   01/08/2020 21:15:00      0.000     0.000     0.000     8.990
   01/08/2020 21:30:00      0.000     0.000     0.000     8.990
   01/08/2020 21:45:00      0.000     0.000     0.000     8.990
   01/08/2020 22:00:00      0.000     0.000     0.000     8.990
   01/08/2020 22:15:00      0.000     0.000     0.000     8.990
   01/08/2020 22:30:00      0.000     0.000     0.000     8.990
   01/08/2020 22:45:00      0.000     0.000     0.000     8.990
   01/08/2020 23:00:00      0.000     0.000     0.000     8.990
   01/08/2020 23:15:00      0.000     0.000     0.000     8.990
   01/08/2020 23:30:00      0.000     0.000     0.000     8.990
   01/08/2020 23:45:00      0.000     0.000     0.000     8.990
   01/09/2020 00:00:00      0.000     0.000     0.000     8.990
  
  
  <<< Node 3 >>>
  ----------------------------------------------------------------
                           Inflow  Flooding     Depth      Head
  Date        Time            CFS       CFS      feet      feet
  ----------------------------------------------------------------
   01/08/2020 14:00:00      0.000     0.000     6.153     2.933
   01/08/2020 14:15:00      0.001     0.000     6.153     2.933
   01/08/2020 14:30:00      0.000     0.000     6.153     2.933
   01/08/2020 14:45:00      0.000     0.000     6.153     2.933
   01/08/2020 15:00:00      0.000     0.000     6.153     2.933
   01/08/2020 15:15:00      0.000     0.000     6.153     2.933
   01/08/2020 15:30:00      0.001     0.000     6.153     2.933
   01/08/2020 15:45:00      0.000     0.000     6.153     2.933
   01/08/2020 16:00:00      0.000     0.000     6.153     2.933
   01/08/2020 16:15:00      0.000     0.000     6.153     2.933
   01/08/2020 16:30:00      0.000     0.000     6.153     2.933
   01/08/2020 16:45:00      0.000     0.000     6.153     2.933
   01/08/2020 17:00:00      0.000     0.000     6.153     2.933
   01/08/2020 17:15:00      0.000     0.000     6.153     2.933
   01/08/2020 17:30:00      0.001     0.000     6.153     2.933
   01/08/2020 17:45:00      0.000     0.000     6.153     2.933
   01/08/2020 18:00:00      0.001     0.000     6.153     2.933
   01/08/2020 18:15:00      0.000     0.000     6.153     2.933
   01/08/2020 18:30:00      0.001     0.000     6.153     2.933
   01/08/2020 18:45:00      0.000     0.000     6.153     2.933
   01/08/2020 19:00:00      0.000     0.000     6.153     2.933
   01/08/2020 19:15:00      0.000     0.000     6.153     2.933
   01/08/2020 19:30:00      0.000     0.000     6.153     2.933
   01/08/2020 19:45:00      0.000     0.000     6.153     2.933
   01/08/2020 20:00:00      0.000     0.000     6.153     2.933
   01/08/2020 20:15:00      0.000     0.000     6.153     2.933
   01/08/2020 20:30:00      0.001     0.000     6.153     2.933
   01/08/2020 20:45:00      0.000     0.000     6.153     2.933
   01/08/2020 21:00:00      0.001     0.000     6.153     2.933
   01/08/2020 21:15:00      0.000     0.000     6.153     2.933
   01/08/2020 21:30:00      0.000     0.000     6.153     2.933
   01/08/2020 21:45:00      0.000     0.000     6.153     2.933
   01/08/2020 22:00:00      0.000     0.000     6.153     2.933
   01/08/2020 22:15:00      0.000     0.000     6.153     2.933
   01/08/2020 22:30:00      0.000     0.000     6.153     2.933
   01/08/2020 22:45:00      0.000     0.000     6.153     2.933
   01/08/2020 23:00:00      0.000     0.000     6.153     2.933
   01/08/2020 23:15:00      0.000     0.000     6.153     2.933
   01/08/2020 23:30:00      0.000     0.000     6.153     2.933
   01/08/2020 23:45:00      0.000     0.000     6.153     2.933
   01/09/2020 00:00:00      0.000     0.000     6.153     2.933
  
  
  <<< Node 4 >>>
  ----------------------------------------------------------------
                           Inflow  Flooding     Depth      Head
  Date        Time            CFS       CFS      feet      feet
  ----------------------------------------------------------------
   01/08/2020 14:00:00      0.000     0.000     4.493     2.933
   01/08/2020 14:15:00      0.000     0.000     4.493     2.933
   01/08/2020 14:30:00      0.000     0.000     4.493     2.933
   01/08/2020 14:45:00      0.000     0.000     4.493     2.933
   01/08/2020 15:00:00      0.001     0.000     4.493     2.933
   01/08/2020 15:15:00      0.001     0.000     4.493     2.933
   01/08/2020 15:30:00      0.000     0.000     4.493     2.933
   01/08/2020 15:45:00      0.000     0.000     4.493     2.933
   01/08/2020 16:00:00      0.000     0.000     4.493     2.933
   01/08/2020 16:15:00      0.000     0.000     4.493     2.933
   01/08/2020 16:30:00      0.001     0.000     4.493     2.933
   01/08/2020 16:45:00      0.000     0.000     4.493     2.933
   01/08/2020 17:00:00      0.000     0.000     4.493     2.933
   01/08/2020 17:15:00      0.001     0.000     4.493     2.933
   01/08/2020 17:30:00      0.000     0.000     4.493     2.933
   01/08/2020 17:45:00      0.000     0.000     4.493     2.933
   01/08/2020 18:00:00      0.000     0.000     4.493     2.933
   01/08/2020 18:15:00      0.000     0.000     4.493     2.933
   01/08/2020 18:30:00      0.000     0.000     4.493     2.933
   01/08/2020 18:45:00      0.000     0.000     4.493     2.933
   01/08/2020 19:00:00      0.000     0.000     4.493     2.933
   01/08/2020 19:15:00      0.000     0.000     4.493     2.933
   01/08/2020 19:30:00      0.000     0.000     4.493     2.933
   01/08/2020 19:45:00      0.000     0.000     4.493     2.933
   01/08/2020 20:00:00      0.000     0.000     4.493     2.933
   01/08/2020 20:15:00      0.000     0.000     4.493     2.933
   01/08/2020 20:30:00      0.000     0.000     4.493     2.933
   01/08/2020 20:45:00      0.000     0.000     4.493     2.933
   01/08/2020 21:00:00      0.000     0.000     4.493     2.933
   01/08/2020 21:15:00      0.000     0.000     4.493     2.933
   01/08/2020 21:30:00      0.000     0.000     4.493     2.933
   01/08/2020 21:45:00      0.000     0.000     4.493     2.933
   01/08/2020 22:00:00      0.000     0.000     4.493     2.933
   01/08/2020 22:15:00      0.000     0.000     4.493     2.933
   01/08/2020 22:30:00      0.000     0.000     4.493     2.933
   01/08/2020 22:45:00      0.000     0.000     4.493     2.933
   01/08/2020 23:00:00      0.001     0.000     4.493     2.933
   01/08/2020 23:15:00      0.001     0.000     4.493     2.933
   01/08/2020 23:30:00      0.000     0.000     4.493     2.933
   01/08/2020 23:45:00      0.000     0.000     4.493     2.933
   01/09/2020 00:00:00      0.000     0.000     4.493     2.933
  
  
  <<< Node 5 >>>
  ----------------------------------------------------------------
                           Inflow  Flooding     Depth      Head
  Date        Time            CFS       CFS      feet      feet
  ----------------------------------------------------------------
   01/08/2020 14:00:00      0.000     0.000     0.000     8.590
   01/08/2020 14:15:00      0.000     0.000     0.000     8.590
   01/08/2020 14:30:00      0.000     0.000     0.000     8.590
   01/08/2020 14:45:00      0.000     0.000     0.000     8.590
   01/08/2020 15:00:00      0.000     0.000     0.000     8.590
   01/08/2020 15:15:00      0.000     0.000     0.000     8.590
   01/08/2020 15:30:00      0.000     0.000     0.000     8.590
   01/08/2020 15:45:00      0.000     0.000     0.000     8.590
   01/08/2020 16:00:00      0.000     0.000     0.000     8.590
   01/08/2020 16:15:00      0.000     0.000     0.000     8.590
   01/08/2020 16:30:00      0.000     0.000     0.000     8.590
   01/08/2020 16:45:00      0.000     0.000     0.000     8.590
   01/08/2020 17:00:00      0.000     0.000     0.000     8.590
[...]
   01/08/2020 16:15:00      0.000     0.000     0.000     0.000
   01/08/2020 16:30:00      0.000     0.000     0.000     0.000
   01/08/2020 16:45:00      0.000     0.000     0.000     0.000
   01/08/2020 17:00:00      0.000     0.000     0.000     0.000
   01/08/2020 17:15:00      0.000     0.000     0.000     0.000
   01/08/2020 17:30:00      0.000     0.000     0.000     0.000
   01/08/2020 17:45:00      0.000     0.000     0.000     0.000
   01/08/2020 18:00:00      0.000     0.000     0.000     0.000
   01/08/2020 18:15:00      0.000     0.000     0.000     0.000
   01/08/2020 18:30:00      0.000     0.000     0.000     0.000
   01/08/2020 18:45:00      0.000     0.000     0.000     0.000
   01/08/2020 19:00:00      0.000     0.000     0.000     0.000
   01/08/2020 19:15:00      0.000     0.000     0.000     0.000
   01/08/2020 19:30:00      0.000     0.000     0.000     0.000
   01/08/2020 19:45:00      0.000     0.000     0.000     0.000
   01/08/2020 20:00:00      0.000     0.000     0.000     0.000
   01/08/2020 20:15:00      0.000     0.000     0.000     0.000
   01/08/2020 20:30:00      0.000     0.000     0.000     0.000
   01/08/2020 20:45:00      0.000     0.000     0.000     0.000
   01/08/2020 21:00:00      0.000     0.000     0.000     0.000
   01/08/2020 21:15:00      0.000     0.000     0.000     0.000
   01/08/2020 21:30:00      0.000     0.000     0.000     0.000
   01/08/2020 21:45:00      0.000     0.000     0.000     0.000
   01/08/2020 22:00:00      0.000     0.000     0.000     0.000
   01/08/2020 22:15:00      0.000     0.000     0.000     0.000
   01/08/2020 22:30:00      0.000     0.000     0.000     0.000
   01/08/2020 22:45:00      0.000     0.000     0.000     0.000
   01/08/2020 23:00:00      0.000     0.000     0.000     0.000
   01/08/2020 23:15:00      0.000     0.000     0.000     0.000
   01/08/2020 23:30:00      0.000     0.000     0.000     0.000
   01/08/2020 23:45:00      0.000     0.000     0.000     0.000
   01/09/2020 00:00:00      0.000     0.000     0.000     0.000
  
  
  <<< Link 143 >>>
  ----------------------------------------------------------------
                             Flow  Velocity     Depth  Capacity/
  Date        Time            CFS    ft/sec      feet   Setting 
  ----------------------------------------------------------------
   01/08/2020 14:00:00      0.000     0.000     0.000     0.000
   01/08/2020 14:15:00      0.000     0.000     0.000     0.000
   01/08/2020 14:30:00      0.000     0.000     0.000     0.000
   01/08/2020 14:45:00      0.000     0.000     0.000     0.000
   01/08/2020 15:00:00      0.000     0.000     0.000     0.000
   01/08/2020 15:15:00      0.000     0.000     0.000     0.000
   01/08/2020 15:30:00      0.000     0.000     0.000     0.000
   01/08/2020 15:45:00      0.000     0.000     0.000     0.000
   01/08/2020 16:00:00      0.000     0.000     0.000     0.000
   01/08/2020 16:15:00      0.000     0.000     0.000     0.000
   01/08/2020 16:30:00      0.000     0.000     0.000     0.000
   01/08/2020 16:45:00      0.000     0.000     0.000     0.000
   01/08/2020 17:00:00      0.000     0.000     0.000     0.000
   01/08/2020 17:15:00      0.000     0.000     0.000     0.000
   01/08/2020 17:30:00      0.000     0.000     0.000     0.000
   01/08/2020 17:45:00      0.000     0.000     0.000     0.000
   01/08/2020 18:00:00      0.000     0.000     0.000     0.000
   01/08/2020 18:15:00      0.000     0.000     0.000     0.000
   01/08/2020 18:30:00      0.000     0.000     0.000     0.000
   01/08/2020 18:45:00      0.000     0.000     0.000     0.000
   01/08/2020 19:00:00      0.000     0.000     0.000     0.000
   01/08/2020 19:15:00      0.000     0.000     0.000     0.000
   01/08/2020 19:30:00      0.000     0.000     0.000     0.000
   01/08/2020 19:45:00      0.000     0.000     0.000     0.000
   01/08/2020 20:00:00      0.000     0.000     0.000     0.000
   01/08/2020 20:15:00      0.000     0.000     0.000     0.000
   01/08/2020 20:30:00      0.000     0.000     0.000     0.000
   01/08/2020 20:45:00      0.000     0.000     0.000     0.000
   01/08/2020 21:00:00      0.000     0.000     0.000     0.000
   01/08/2020 21:15:00      0.000     0.000     0.000     0.000
   01/08/2020 21:30:00      0.000     0.000     0.000     0.000
   01/08/2020 21:45:00      0.000     0.000     0.000     0.000
   01/08/2020 22:00:00      0.000     0.000     0.000     0.000
   01/08/2020 22:15:00      0.000     0.000     0.000     0.000
   01/08/2020 22:30:00      0.000     0.000     0.000     0.000
   01/08/2020 22:45:00      0.000     0.000     0.000     0.000
   01/08/2020 23:00:00      0.000     0.000     0.000     0.000
   01/08/2020 23:15:00      0.000     0.000     0.000     0.000
   01/08/2020 23:30:00      0.000     0.000     0.000     0.000
   01/08/2020 23:45:00      0.000     0.000     0.000     0.000
   01/09/2020 00:00:00      0.000     0.000     0.000     0.000
  
  
  <<< Link 145 >>>
  ----------------------------------------------------------------
                             Flow  Velocity     Depth  Capacity/
  Date        Time            CFS    ft/sec      feet   Setting 
  ----------------------------------------------------------------
   01/08/2020 14:00:00     -0.000    -0.000     0.000     0.000
   01/08/2020 14:15:00     -0.000    -0.000     0.000     0.000
   01/08/2020 14:30:00     -0.000    -0.000     0.000     0.000
   01/08/2020 14:45:00     -0.000    -0.000     0.000     0.000
   01/08/2020 15:00:00     -0.000    -0.000     0.000     0.000
   01/08/2020 15:15:00     -0.000    -0.000     0.000     0.000
   01/08/2020 15:30:00     -0.000    -0.000     0.000     0.000
   01/08/2020 15:45:00     -0.000    -0.000     0.000     0.000
   01/08/2020 16:00:00     -0.000    -0.000     0.000     0.000
   01/08/2020 16:15:00     -0.000    -0.000     0.000     0.000
   01/08/2020 16:30:00     -0.000    -0.000     0.000     0.000
   01/08/2020 16:45:00     -0.000    -0.000     0.000     0.000
   01/08/2020 17:00:00     -0.000    -0.000     0.000     0.000
   01/08/2020 17:15:00     -0.000    -0.000     0.000     0.000
   01/08/2020 17:30:00     -0.000    -0.000     0.000     0.000
   01/08/2020 17:45:00     -0.000    -0.000     0.000     0.000
   01/08/2020 18:00:00     -0.000    -0.000     0.000     0.000
   01/08/2020 18:15:00     -0.000    -0.000     0.000     0.000
   01/08/2020 18:30:00     -0.000    -0.000     0.000     0.000
   01/08/2020 18:45:00     -0.000    -0.000     0.000     0.000
   01/08/2020 19:00:00     -0.000    -0.000     0.000     0.000
   01/08/2020 19:15:00     -0.000    -0.000     0.000     0.000
   01/08/2020 19:30:00     -0.000    -0.000     0.000     0.000
   01/08/2020 19:45:00     -0.000    -0.000     0.000     0.000
   01/08/2020 20:00:00     -0.000    -0.000     0.000     0.000
   01/08/2020 20:15:00     -0.000    -0.000     0.000     0.000
   01/08/2020 20:30:00     -0.000    -0.000     0.000     0.000
   01/08/2020 20:45:00     -0.000    -0.000     0.000     0.000
   01/08/2020 21:00:00     -0.000    -0.000     0.000     0.000
   01/08/2020 21:15:00     -0.000    -0.000     0.000     0.000
   01/08/2020 21:30:00     -0.000    -0.000     0.000     0.000
   01/08/2020 21:45:00     -0.000    -0.000     0.000     0.000
   01/08/2020 22:00:00     -0.000    -0.000     0.000     0.000
   01/08/2020 22:15:00     -0.000    -0.000     0.000     0.000
   01/08/2020 22:30:00     -0.000    -0.000     0.000     0.000
   01/08/2020 22:45:00     -0.000    -0.000     0.000     0.000
   01/08/2020 23:00:00     -0.000    -0.000     0.000     0.000
   01/08/2020 23:15:00     -0.000    -0.000     0.000     0.000
   01/08/2020 23:30:00     -0.000    -0.000     0.000     0.000
   01/08/2020 23:45:00     -0.000    -0.000     0.000     0.000
   01/09/2020 00:00:00     -0.000    -0.000     0.000     0.000
  
  
  <<< Link 146 >>>
  ----------------------------------------------------------------
                             Flow  Velocity     Depth  Capacity/
  Date        Time            CFS    ft/sec      feet   Setting 
  ----------------------------------------------------------------
   01/08/2020 14:00:00     -0.000    -0.000     0.000     0.000
   01/08/2020 14:15:00     -0.000    -0.000     0.000     0.000
   01/08/2020 14:30:00     -0.000    -0.000     0.000     0.000
   01/08/2020 14:45:00     -0.000    -0.000     0.000     0.000
   01/08/2020 15:00:00     -0.000    -0.000     0.000     0.000
   01/08/2020 15:15:00     -0.000    -0.000     0.000     0.000
   01/08/2020 15:30:00     -0.000    -0.000     0.000     0.000
   01/08/2020 15:45:00     -0.000    -0.000     0.000     0.000
   01/08/2020 16:00:00     -0.000    -0.000     0.000     0.000
   01/08/2020 16:15:00     -0.000    -0.000     0.000     0.000
   01/08/2020 16:30:00     -0.000    -0.000     0.000     0.000
   01/08/2020 16:45:00     -0.000    -0.000     0.000     0.000
   01/08/2020 17:00:00     -0.000    -0.000     0.000     0.000
   01/08/2020 17:15:00     -0.000    -0.000     0.000     0.000
   01/08/2020 17:30:00     -0.000    -0.000     0.000     0.000
   01/08/2020 17:45:00     -0.000    -0.000     0.000     0.000
   01/08/2020 18:00:00     -0.000    -0.000     0.000     0.000
   01/08/2020 18:15:00     -0.000    -0.000     0.000     0.000
   01/08/2020 18:30:00     -0.000    -0.000     0.000     0.000
   01/08/2020 18:45:00     -0.000    -0.000     0.000     0.000
   01/08/2020 19:00:00     -0.000    -0.000     0.000     0.000
   01/08/2020 19:15:00     -0.000    -0.000     0.000     0.000
   01/08/2020 19:30:00     -0.000    -0.000     0.000     0.000
   01/08/2020 19:45:00     -0.000    -0.000     0.000     0.000
   01/08/2020 20:00:00     -0.000    -0.000     0.000     0.000
   01/08/2020 20:15:00     -0.000    -0.000     0.000     0.000
   01/08/2020 20:30:00     -0.000    -0.000     0.000     0.000
   01/08/2020 20:45:00     -0.000    -0.000     0.000     0.000
   01/08/2020 21:00:00     -0.000    -0.000     0.000     0.000
   01/08/2020 21:15:00     -0.000    -0.000     0.000     0.000
   01/08/2020 21:30:00     -0.000    -0.000     0.000     0.000
   01/08/2020 21:45:00     -0.000    -0.000     0.000     0.000
   01/08/2020 22:00:00     -0.000    -0.000     0.000     0.000
   01/08/2020 22:15:00     -0.000    -0.000     0.000     0.000
   01/08/2020 22:30:00     -0.000    -0.000     0.000     0.000
   01/08/2020 22:45:00     -0.000    -0.000     0.000     0.000
   01/08/2020 23:00:00     -0.000    -0.000     0.000     0.000
   01/08/2020 23:15:00     -0.000    -0.000     0.000     0.000
   01/08/2020 23:30:00     -0.000    -0.000     0.000     0.000
   01/08/2020 23:45:00     -0.000    -0.000     0.000     0.000
   01/09/2020 00:00:00     -0.000    -0.000     0.000     0.000
  
  
  <<< Link 147 >>>
  ----------------------------------------------------------------
                             Flow  Velocity     Depth  Capacity/
  Date        Time            CFS    ft/sec      feet   Setting 
  ----------------------------------------------------------------
   01/08/2020 14:00:00      0.000     0.000     0.000     0.000
   01/08/2020 14:15:00      0.000     0.000     0.000     0.000
   01/08/2020 14:30:00      0.000     0.000     0.000     0.000
   01/08/2020 14:45:00      0.000     0.000     0.000     0.000
   01/08/2020 15:00:00      0.000     0.000     0.000     0.000
   01/08/2020 15:15:00      0.000     0.000     0.000     0.000
   01/08/2020 15:30:00      0.000     0.000     0.000     0.000
   01/08/2020 15:45:00      0.000     0.000     0.000     0.000
   01/08/2020 16:00:00      0.000     0.000     0.000     0.000
   01/08/2020 16:15:00      0.000     0.000     0.000     0.000
   01/08/2020 16:30:00      0.000     0.000     0.000     0.000
   01/08/2020 16:45:00      0.000     0.000     0.000     0.000
   01/08/2020 17:00:00      0.000     0.000     0.000     0.000
   01/08/2020 17:15:00      0.000     0.000     0.000     0.000
   01/08/2020 17:30:00      0.000     0.000     0.000     0.000
   01/08/2020 17:45:00      0.000     0.000     0.000     0.000
   01/08/2020 18:00:00      0.000     0.000     0.000     0.000
   01/08/2020 18:15:00      0.000     0.000     0.000     0.000
   01/08/2020 18:30:00      0.000     0.000     0.000     0.000
   01/08/2020 18:45:00      0.000     0.000     0.000     0.000
   01/08/2020 19:00:00      0.000     0.000     0.000     0.000
   01/08/2020 19:15:00      0.000     0.000     0.000     0.000
   01/08/2020 19:30:00      0.000     0.000     0.000     0.000
   01/08/2020 19:45:00      0.000     0.000     0.000     0.000
   01/08/2020 20:00:00      0.000     0.000     0.000     0.000
   01/08/2020 20:15:00      0.000     0.000     0.000     0.000
   01/08/2020 20:30:00      0.000     0.000     0.000     0.000
   01/08/2020 20:45:00      0.000     0.000     0.000     0.000
   01/08/2020 21:00:00      0.000     0.000     0.000     0.000
   01/08/2020 21:15:00      0.000     0.000     0.000     0.000
   01/08/2020 21:30:00      0.000     0.000     0.000     0.000
   01/08/2020 21:45:00      0.000     0.000     0.000     0.000
   01/08/2020 22:00:00      0.000     0.000     0.000     0.000
   01/08/2020 22:15:00      0.000     0.000     0.000     0.000
   01/08/2020 22:30:00      0.000     0.000     0.000     0.000
   01/08/2020 22:45:00      0.000     0.000     0.000     0.000
   01/08/2020 23:00:00      0.000     0.000     0.000     0.000
   01/08/2020 23:15:00      0.000     0.000     0.000     0.000
   01/08/2020 23:30:00      0.000     0.000     0.000     0.000
   01/08/2020 23:45:00      0.000     0.000     0.000     0.000
   01/09/2020 00:00:00      0.000     0.000     0.000     0.000
  
  
  <<< Link 148 >>>
  ----------------------------------------------------------------
                             Flow  Velocity     Depth  Capacity/
  Date        Time            CFS    ft/sec      feet   Setting 
  ----------------------------------------------------------------
   01/08/2020 14:00:00      0.000     0.000     7.500     0.500
   01/08/2020 14:15:00      0.000     0.000     7.500     0.500
   01/08/2020 14:30:00      0.000     0.000     7.500     0.500
   01/08/2020 14:45:00      0.000     0.000     7.500     0.500
   01/08/2020 15:00:00      0.000     0.000     7.500     0.500
   01/08/2020 15:15:00      0.000     0.000     7.500     0.500
   01/08/2020 15:30:00      0.000     0.000     7.500     0.500
   01/08/2020 15:45:00      0.000     0.000     7.500     0.500
   01/08/2020 16:00:00      0.000     0.000     7.500     0.500
   01/08/2020 16:15:00      0.000     0.000     7.500     0.500
   01/08/2020 16:30:00      0.000     0.000     7.500     0.500
   01/08/2020 16:45:00      0.000     0.000     7.500     0.500
   01/08/2020 17:00:00      0.000     0.000     7.500     0.500
   01/08/2020 17:15:00      0.000     0.000     7.500     0.500
   01/08/2020 17:30:00      0.000     0.000     7.500     0.500
   01/08/2020 17:45:00      0.000     0.000     7.500     0.500
   01/08/2020 18:00:00      0.000     0.000     7.500     0.500
   01/08/2020 18:15:00      0.000     0.000     7.500     0.500
   01/08/2020 18:30:00      0.000     0.000     7.500     0.500
   01/08/2020 18:45:00      0.000     0.000     7.500     0.500
   01/08/2020 19:00:00      0.000     0.000     7.500     0.500
   01/08/2020 19:15:00      0.000     0.000     7.500     0.500
   01/08/2020 19:30:00      0.000     0.000     7.500     0.500
   01/08/2020 19:45:00      0.000     0.000     7.500     0.500
   01/08/2020 20:00:00      0.000     0.000     7.500     0.500
   01/08/2020 20:15:00      0.000     0.000     7.500     0.500
   01/08/2020 20:30:00      0.000     0.000     7.500     0.500
   01/08/2020 20:45:00      0.000     0.000     7.500     0.500
   01/08/2020 21:00:00      0.000     0.000     7.500     0.500
   01/08/2020 21:15:00      0.000     0.000     7.500     0.500
   01/08/2020 21:30:00      0.000     0.000     7.500     0.500
   01/08/2020 21:45:00      0.000     0.000     7.500     0.500
   01/08/2020 22:00:00      0.000     0.000     7.500     0.500
   01/08/2020 22:15:00      0.000     0.000     7.500     0.500
   01/08/2020 22:30:00      0.000     0.000     7.500     0.500
   01/08/2020 22:45:00      0.000     0.000     7.500     0.500
   01/08/2020 23:00:00      0.000     0.000     7.500     0.500
   01/08/2020 23:15:00      0.000     0.000     7.500     0.500
   01/08/2020 23:30:00      0.000     0.000     7.500     0.500
   01/08/2020 23:45:00      0.000     0.000     7.500     0.500
   01/09/2020 00:00:00      0.000     0.000     7.500     0.500
  
  
  <<< Link 149 >>>
  ----------------------------------------------------------------
                             Flow  Velocity     Depth  Capacity/
  Date        Time            CFS    ft/sec      feet   Setting 
  ----------------------------------------------------------------
   01/08/2020 14:00:00     -0.000    -0.000     0.000     0.000
   01/08/2020 14:15:00     -0.000    -0.000     0.000     0.000
   01/08/2020 14:30:00     -0.000    -0.000     0.000     0.000
   01/08/2020 14:45:00     -0.000    -0.000     0.000     0.000
   01/08/2020 15:00:00     -0.000    -0.000     0.000     0.000
   01/08/2020 15:15:00     -0.000    -0.000     0.000     0.000
   01/08/2020 15:30:00     -0.000    -0.000     0.000     0.000
   01/08/2020 15:45:00     -0.000    -0.000     0.000     0.000
   01/08/2020 16:00:00     -0.000    -0.000     0.000     0.000
   01/08/2020 16:15:00     -0.000    -0.000     0.000     0.000
   01/08/2020 16:30:00     -0.000    -0.000     0.000     0.000
   01/08/2020 16:45:00     -0.000    -0.000     0.000     0.000
   01/08/2020 17:00:00     -0.000    -0.000     0.000     0.000
   01/08/2020 17:15:00     -0.000    -0.000     0.000     0.000
   01/08/2020 17:30:00     -0.000    -0.000     0.000     0.000
   01/08/2020 17:45:00     -0.000    -0.000     0.000     0.000
   01/08/2020 18:00:00     -0.000    -0.000     0.000     0.000
   01/08/2020 18:15:00     -0.000    -0.000     0.000     0.000
   01/08/2020 18:30:00     -0.000    -0.000     0.000     0.000
   01/08/2020 18:45:00     -0.000    -0.000     0.000     0.000
   01/08/2020 19:00:00     -0.000    -0.000     0.000     0.000
   01/08/2020 19:15:00     -0.000    -0.000     0.000     0.000
   01/08/2020 19:30:00     -0.000    -0.000     0.000     0.000
   01/08/2020 19:45:00     -0.000    -0.000     0.000     0.000
   01/08/2020 20:00:00     -0.000    -0.000     0.000     0.000
   01/08/2020 20:15:00     -0.000    -0.000     0.000     0.000
   01/08/2020 20:30:00     -0.000    -0.000     0.000     0.000
   01/08/2020 20:45:00     -0.000    -0.000     0.000     0.000
   01/08/2020 21:00:00     -0.000    -0.000     0.000     0.000
   01/08/2020 21:15:00     -0.000    -0.000     0.000     0.000
   01/08/2020 21:30:00     -0.000    -0.000     0.000     0.000
   01/08/2020 21:45:00     -0.000    -0.000     0.000     0.000
   01/08/2020 22:00:00     -0.000    -0.000     0.000     0.000
   01/08/2020 22:15:00     -0.000    -0.000     0.000     0.000
   01/08/2020 22:30:00     -0.000    -0.000     0.000     0.000
   01/08/2020 22:45:00     -0.000    -0.000     0.000     0.000
   01/08/2020 23:00:00     -0.000    -0.000     0.000     0.000
   01/08/2020 23:15:00     -0.000    -0.000     0.000     0.000
   01/08/2020 23:30:00     -0.000    -0.000     0.000     0.000
   01/08/2020 23:45:00     -0.000    -0.000     0.000     0.000
   01/09/2020 00:00:00     -0.000    -0.000     0.000     0.000
  

  Analysis begun on:  Wed Dec 29 11:45:22 2021
  Analysis ended on:  Wed Dec 29 11:47:32 2021
  Total elapsed time: 00:02:10