
  EPA STORM WATER MANAGEMENT MODEL - VERSION 5.1 (Build 5.1.015)
  --------------------------------------------------------------

  WARNING 04: minimum elevation drop used for Conduit 28
  WARNING 04: minimum elevation drop used for Conduit 39
  WARNING 04: minimum elevation drop used for Conduit 43
  WARNING 04: minimum elevation drop used for Conduit 48
  WARNING 04: minimum elevation drop used for Conduit 76
  WARNING 04: minimum elevation drop used for Conduit 78
  WARNING 04: minimum elevation drop used for Conduit 80
  WARNING 04: minimum elevation drop used for Conduit 85
  WARNING 08: elevation drop exceeds length for Conduit 92
  WARNING 04: minimum elevation drop used for Conduit 147
  WARNING 02: maximum depth increased for Node 1
  WARNING 02: maximum depth increased for Node 2
  WARNING 02: maximum depth increased for Node 70
  WARNING 02: maximum depth increased for Node 72
  WARNING 02: maximum depth increased for Node 91
  
  *********************************************************
  NOTE: The summary statistics displayed in this report are
  based on results found at every computational time step,  
  not just on results from each reporting time step.
  *********************************************************
  
  ****************
  Analysis Options
  ****************
  Flow Units ............... CFS
  Process Models:
    Rainfall/Runoff ........ NO
    RDII ................... NO
    Snowmelt ............... NO
    Groundwater ............ NO
    Flow Routing ........... YES
    Ponding Allowed ........ YES
    Water Quality .......... NO
  Flow Routing Method ...... DYNWAVE
  Surcharge Method ......... EXTRAN
  Starting Date ............ 01/01/2020 00:00:00
  Ending Date .............. 01/09/2020 00:00:00
  Antecedent Dry Days ...... 0.0
  Report Time Step ......... 00:15:00
  Routing Time Step ........ 30.00 sec
  Variable Time Step ....... YES
  Maximum Trials ........... 10
  Number of Threads ........ 1
  Head Tolerance ........... 0.005000 ft
  
  
  **************************        Volume        Volume
  Flow Routing Continuity        acre-feet      10^6 gal
  **************************     ---------     ---------
  Dry Weather Inflow .......         0.000         0.000
  Wet Weather Inflow .......         0.000         0.000
  Groundwater Inflow .......         0.000         0.000
  RDII Inflow ..............         0.000         0.000
  External Inflow ..........    376237.603    122602.644
  External Outflow .........     53163.328     17324.065
  Flooding Loss ............    321945.301    104910.686
  Evaporation Loss .........         0.000         0.000
  Exfiltration Loss ........         0.000         0.000
  Initial Stored Volume ....        -0.306        -0.100
  Final Stored Volume ......       985.626       321.181
  Continuity Error (%) .....         0.038
  
  
  *************************
  Highest Continuity Errors
  *************************
  Node 102 (88.24%)
  Node 59 (39.17%)
  Node 58 (24.46%)
  Node 3 (23.32%)
  Node 148 (20.65%)
  
  
  ***************************
  Time-Step Critical Elements
  ***************************
  Link 88 (738.04%)
  Link 99 (541.40%)
  Link 123 (254.70%)
  Link 6 (184.22%)
  Link 15 (163.82%)
  
  
  ********************************
  Highest Flow Instability Indexes
  ********************************
  Link 66 (139)
  Link 20 (128)
  Link 71 (127)
  Link 19 (124)
  Link 149 (123)
  
  
  *************************
  Routing Time Step Summary
  *************************
  Minimum Time Step           :     0.07 sec
  Average Time Step           :     4.43 sec
  Maximum Time Step           :    30.00 sec
  Percent in Steady State     :    94.79
  Average Iterations per Step :     7.87
  Percent Not Converging      :   834.71
  Time Step Frequencies       :
     30.000 -  3.817 sec      :    91.65 %
      3.817 -  0.486 sec      :     7.27 %
      0.486 -  0.062 sec      :     1.08 %
      0.062 -  0.008 sec      :     0.00 %
      0.008 -  0.001 sec      :     0.00 %
  
  
  ******************
  Node Depth Summary
  ******************
  
  ---------------------------------------------------------------------------------
                                 Average  Maximum  Maximum  Time of Max    Reported
                                   Depth    Depth      HGL   Occurrence   Max Depth
  Node                 Type         Feet     Feet     Feet  days hr:min        Feet
  ---------------------------------------------------------------------------------
  1                    JUNCTION     0.00     0.00    10.01     7  14:00        0.00
  2                    JUNCTION     0.00     0.00     8.99     7  14:00        0.00
  3                    JUNCTION    11.81    11.81     8.59     7  14:00       11.81
  4                    JUNCTION    10.15    10.15     8.59     7  14:00       10.15
  5                    JUNCTION     0.00     0.00     8.59     7  14:00        0.00
  6                    JUNCTION     4.55     4.63     6.30     7  22:56        4.60
  7                    JUNCTION     8.48     8.57     6.31     7  22:56        8.54
  8                    JUNCTION    54.21    54.64     6.65     7  22:43       54.33
  9                    JUNCTION    54.18    54.63     6.67     7  22:43       54.30
  10                   JUNCTION    82.09    82.46     6.59     7  22:43       82.27
  11                   JUNCTION    92.03    92.34     6.53     7  22:44       92.28
  12                   JUNCTION    24.65    25.04     6.61     7  22:44       24.98
  13                   JUNCTION    18.02    18.41     6.61     7  22:44       18.34
  14                   JUNCTION    17.91    18.32     6.63     7  22:44       18.24
  15                   JUNCTION    30.70    31.07     6.59     7  22:44       30.99
  16                   JUNCTION    14.14    14.46     6.54     7  22:44       14.41
  19                   JUNCTION    25.68    25.90     7.10     7  18:50       25.69
  20                   JUNCTION    30.68    30.86     7.06     7  18:50       30.71
  21                   JUNCTION    27.88    28.05     7.05     7  18:50       27.93
  22                   JUNCTION    19.38    19.47     6.97     7  15:17       19.39
  23                   JUNCTION    12.08    12.12     6.92     7  21:39       12.08
  24                   JUNCTION     0.38     0.40     6.90     7  21:37        0.38
  25                   JUNCTION     0.19     0.20     6.50     7  22:26        0.19
  26                   JUNCTION    17.82    17.90     6.30     7  22:46       17.87
  27                   JUNCTION    18.12    18.17     6.27     7  22:47       18.14
  28                   JUNCTION    14.22    14.26     6.26     7  22:47       14.23
  29                   JUNCTION    14.22    14.26     6.26     7  22:50       14.24
  30                   JUNCTION    27.92    27.97     6.27     7  22:51       27.94
  31                   JUNCTION    28.02    28.07     6.27     7  22:51       28.03
  32                   JUNCTION    53.82    53.92     6.32     7  22:52       53.87
  33                   JUNCTION    50.72    50.82     6.32     7  23:00       50.77
  34                   JUNCTION    17.92    18.00     6.30     7  23:00       17.99
  35                   JUNCTION     0.00     0.00    21.17     0  00:00        0.00
  36                   JUNCTION     1.58     1.62     6.92     7  22:37        1.59
  37                   JUNCTION     1.48     1.51     6.91     7  21:52        1.49
  38                   JUNCTION    19.88    19.91     6.91     7  21:36       19.88
  39                   JUNCTION    20.18    20.23     6.93     7  22:40       20.20
  40                   JUNCTION    41.08    41.32     7.12     7  19:22       41.18
  41                   JUNCTION    41.08    41.32     7.12     7  19:22       41.19
  42                   JUNCTION    68.38    68.71     7.21     7  19:22       68.49
  43                   JUNCTION    71.78    71.91     7.01     7  21:30       71.86
  44                   JUNCTION    33.08    33.17     6.97     7  22:45       33.16
  45                   JUNCTION    33.08    33.17     6.97     7  22:45       33.16
  46                   JUNCTION    23.28    23.53     7.13     7  21:30       23.37
  47                   JUNCTION    23.38    23.74     7.24     7  21:30       23.47
  48                   JUNCTION    34.68    35.06     7.26     7  21:30       34.77
  49                   JUNCTION    21.18    21.54     7.24     7  21:30       21.28
  50                   JUNCTION    21.18    21.52     7.22     7  21:30       21.29
  51                   JUNCTION    17.38    17.53     7.03     7  21:30       17.50
  52                   JUNCTION     3.88     4.00     7.00     7  23:00        3.99
  53                   JUNCTION    27.18    27.28     5.18     7  22:43       27.22
  54                   JUNCTION     5.98     6.00     5.10     7  22:45        5.99
  55                   JUNCTION     5.08     5.10     5.10     7  22:53        5.09
  56                   JUNCTION    18.78    18.94     5.24     7  22:43       18.81
  57                   JUNCTION    18.28    18.44     5.24     7  22:43       18.30
  58                   JUNCTION    25.58    25.92     5.42     7  17:58       25.64
  59                   JUNCTION    25.68    26.03     5.43     7  17:58       25.75
  60                   JUNCTION     0.00     0.00     7.19     7  14:00        0.00
  61                   JUNCTION     0.00     0.00    12.80     0  00:00        0.00
  62                   JUNCTION     0.00     0.00    15.00     0  00:00        0.00
  63                   JUNCTION     0.00     0.00    22.00     0  00:00        0.00
  64                   JUNCTION     0.00     0.00    18.00     0  00:00        0.00
  65                   JUNCTION     0.00     0.00    11.00     0  00:00        0.00
  66                   JUNCTION     9.22     9.27     6.27     7  22:49        9.24
  67                   JUNCTION    11.92    11.96     6.26     7  22:50       11.94
  70                   JUNCTION    32.22    32.28     6.28     7  22:51       32.24
  71                   JUNCTION    17.41    17.47     6.28     7  22:51       17.43
  72                   JUNCTION    21.38    21.60     5.30     7  22:43       21.38
  73                   JUNCTION    22.08    22.36     5.36     7  22:43       22.23
  74                   JUNCTION    10.08    10.12     5.12     7  22:43       10.08
  75                   JUNCTION    16.98    17.02     5.12     7  22:45       16.99
  76                   JUNCTION     8.08     8.11     5.11     7  22:49        8.09
  77                   JUNCTION    11.33    11.35     5.10     7  22:45       11.34
  78                   JUNCTION    24.79    25.14     5.44     7  22:43       24.81
  79                   JUNCTION    24.77    25.13     5.43     7  22:43       24.80
  80                   JUNCTION    17.68    17.76     5.16     7  22:44       17.71
  81                   JUNCTION    17.68    17.77     5.17     7  22:44       17.70
  82                   JUNCTION    10.08    10.11     5.11     7  22:49       10.10
  83                   JUNCTION    22.98    23.22     7.12     7  21:30       23.11
  84                   JUNCTION    22.98    23.21     7.11     7  21:30       23.10
  85                   JUNCTION    50.58    50.74     7.04     7  21:30       50.68
  86                   JUNCTION    58.18    58.27     6.97     7  18:00       58.24
  87                   JUNCTION    46.88    46.93     6.93     7  21:34       46.90
  88                   JUNCTION    43.88    43.93     6.93     7  21:34       43.91
  89                   JUNCTION    43.88    43.97     6.97     7  17:58       43.93
  90                   JUNCTION    29.88    29.97     6.97     7  21:32       29.92
  91                   JUNCTION    11.68    11.73     6.93     7  22:53       11.72
  92                   JUNCTION     7.68     7.74     6.94     7  22:53        7.73
  18                   JUNCTION    21.38    21.48     5.18     7  22:43       21.41
  100                  JUNCTION    33.70    33.78     5.16     7  22:43       33.73
  102                  JUNCTION    25.08    25.72     0.08     7  19:27       25.43
  103                  JUNCTION    21.82    22.44     0.06     7  19:27       22.17
  104                  JUNCTION    21.81    22.31    -0.06     7  19:27       22.12
  105                  JUNCTION    19.88    20.29    -0.15     7  23:13       20.15
  106                  JUNCTION    11.56    12.26     0.14     7  19:25       11.86
  107                  JUNCTION    14.33    15.17     0.28     7  19:29       15.16
  108                  JUNCTION     6.24     6.92     0.12     7  19:23        6.55
  109                  JUNCTION    20.33    41.00    20.12     7  15:18       20.69
  110                  JUNCTION    20.35    23.87     2.96     7  19:22       20.98
  111                  JUNCTION    20.41    23.96     2.98     7  15:17       20.84
  112                  JUNCTION    20.42    38.68    17.68     7  15:18       21.04
  113                  JUNCTION    80.22    93.71    12.91     7  22:43       80.81
  114                  JUNCTION    82.60   101.92    18.74     7  22:43       83.15
  115                  JUNCTION    71.17    92.00    20.25     7  22:43       71.70
  116                  JUNCTION    71.29    92.00    20.13     7  22:43       71.81
  117                  JUNCTION    97.93   111.27    12.77     7  22:43       98.39
  118                  JUNCTION    22.42    24.30     1.32     7  22:43       22.78
  119                  JUNCTION    19.59    20.02    -0.13     7  22:45       19.94
  120                  JUNCTION    16.86    17.30    -0.12     7  23:04       17.28
  121                  JUNCTION     2.63     3.15    -0.04     7  22:46        3.04
  122                  JUNCTION     2.87     3.41    -0.02     7  22:47        3.13
  123                  JUNCTION    10.08    10.41    -0.23     7  20:19       10.35
  124                  JUNCTION     5.94     6.22    -0.28     7  22:52        6.18
  125                  JUNCTION     6.64     6.96    -0.24     7  19:40        6.86
  126                  JUNCTION    18.82    19.21    -0.17     7  22:56       19.13
  127                  JUNCTION    10.65    11.07    -0.14     7  22:56       10.98
  128                  JUNCTION    11.14    11.56    -0.14     7  22:56       11.48
  129                  JUNCTION    13.76    14.20    -0.12     7  22:56       14.10
  130                  JUNCTION     5.13     5.56    -0.13     7  22:56        5.48
  131                  JUNCTION     0.00     0.00    31.65     0  00:00        0.00
  132                  JUNCTION     0.00     0.00    31.36     0  00:00        0.00
  133                  JUNCTION     0.00     0.00    40.24     0  00:00        0.00
  134                  JUNCTION     0.00     0.00    44.72     0  00:00        0.00
  135                  JUNCTION     0.00     0.00    44.62     0  00:00        0.00
  136                  JUNCTION     0.00     0.00    44.35     0  00:00        0.00
  137                  JUNCTION     0.00     0.00    34.51     0  00:00        0.00
  138                  JUNCTION     0.00     0.00    52.23     0  00:00        0.00
  139                  JUNCTION     0.00     0.00    49.93     0  00:00        0.00
  140                  JUNCTION     0.00     0.00    45.20     0  00:00        0.00
  141                  JUNCTION     0.00     0.00    49.13     0  00:00        0.00
  142                  JUNCTION     0.00     0.00    40.05     0  00:00        0.00
  143                  JUNCTION     0.00     0.00    39.90     0  00:00        0.00
  148                  JUNCTION    31.34    31.56     5.30     7  22:43       31.42
  68                   OUTFALL      0.00     0.00     6.50     0  00:00        0.00
  69                   OUTFALL      0.08     0.17     5.17     7  22:43        0.13
  93                   OUTFALL      0.00     0.00    13.89     0  00:00        0.00
  94                   OUTFALL      0.00     0.00    10.51     0  00:00        0.00
  95                   OUTFALL      0.08     0.08    12.78     8  00:00        0.08
  96                   OUTFALL      0.00     0.00    31.60     0  00:00        0.00
  97                   OUTFALL      0.00     0.00    17.55     0  00:00        0.00
  98                   OUTFALL      0.00     0.00    11.00     0  00:00        0.00
  99                   OUTFALL      0.12     0.40     6.50     7  22:44        0.32
  101                  OUTFALL      0.07     0.07    11.96     8  00:00        0.07
  144                  OUTFALL      0.00     0.00    32.22     0  00:00        0.00
  145                  OUTFALL      0.00     0.00     8.00     0  00:00        0.00
  146                  OUTFALL      0.00     0.00    39.90     0  00:00        0.00
  147                  OUTFALL      0.00     0.00    15.00     0  00:00        0.00
  
  
  *******************
  Node Inflow Summary
  *******************
  
  -------------------------------------------------------------------------------------------------
                                  Maximum  Maximum                  Lateral       Total        Flow
                                  Lateral    Total  Time of Max      Inflow      Inflow     Balance
                                   Inflow   Inflow   Occurrence      Volume      Volume       Error
  Node                 Type           CFS      CFS  days hr:min    10^6 gal    10^6 gal     Percent
  -------------------------------------------------------------------------------------------------
  1                    JUNCTION      0.00     0.00     0  00:00           0       0.229       0.004
  2                    JUNCTION      0.00     0.00     0  00:00           0        3.28       0.019
  3                    JUNCTION      0.00     0.00     7  17:21           0        58.8      30.413
  4                    JUNCTION      0.00     0.02     7  14:01           0        75.4       1.587
  5                    JUNCTION      0.00     0.01     7  14:00           0        63.9       0.358
  6                    JUNCTION      0.00    39.71     7  22:45           0    1.53e+03       0.051
  7                    JUNCTION      0.00    32.42     7  22:45           0    1.48e+03       0.029
  8                    JUNCTION      0.00    33.66     7  22:45           0    1.63e+03       0.263
  9                    JUNCTION      0.00    32.07     7  22:45           0    1.68e+03       0.207
  10                   JUNCTION      0.00    31.91     7  22:45           0     1.8e+03       0.241
  11                   JUNCTION      0.00    31.87     7  22:45           0    1.95e+03       0.248
  12                   JUNCTION      0.00    31.34     7  22:45           0    1.94e+03       0.100
  13                   JUNCTION      0.00    30.32     7  22:46           0    1.92e+03       0.084
  14                   JUNCTION      0.00    34.00     7  22:46           0    1.92e+03       0.181
  15                   JUNCTION      0.00    34.70     7  22:46           0    1.92e+03       0.169
  16                   JUNCTION      0.00    71.71     7  22:43           0    2.42e+04      -0.005
  19                   JUNCTION      0.00     5.00     7  17:58           0    8.34e+03       0.048
  20                   JUNCTION      0.00    11.43     7  15:17           0    1.69e+03       0.287
  21                   JUNCTION      0.00    17.01     7  18:50           0     1.7e+03       0.202
  22                   JUNCTION      0.00    16.83     7  18:50           0    1.69e+03       0.203
  23                   JUNCTION      0.00    13.51     7  18:50           0    1.75e+03       0.047
  24                   JUNCTION      0.00    23.52     7  21:48           0    3.38e+03      -0.022
  25                   JUNCTION      0.00     9.51     7  21:38           0    1.64e+03       0.006
  26                   JUNCTION      0.00    53.21     7  22:54           0    1.97e+03       0.261
  27                   JUNCTION      0.00    51.99     7  22:54           0         842       0.323
  28                   JUNCTION      0.00    63.57     7  22:53           0         882       0.308
  29                   JUNCTION      0.00    75.06     7  22:53           0         917       0.272
  30                   JUNCTION      0.00    53.81     7  22:53           0         798       0.920
  31                   JUNCTION      0.00    46.11     7  22:54           0    2.09e+03       0.300
  32                   JUNCTION      0.00    20.58     7  22:54           0    1.64e+03       0.186
  33                   JUNCTION      0.00    20.47     7  22:58           0    1.64e+03       0.182
  34                   JUNCTION      0.00    20.36     7  22:58           0    2.52e+03       0.113
  35                   JUNCTION      0.00     0.00     0  00:00           0           0       0.000 gal
  36                   JUNCTION      0.00    13.56     7  15:47           0         196       0.228
  37                   JUNCTION      0.00    20.37     7  21:48           0         347       0.108
  38                   JUNCTION      0.00    39.46     7  23:06           0    3.48e+03       0.175
  39                   JUNCTION      0.00    37.38     7  23:06           0    3.34e+03       0.092
  40                   JUNCTION      0.00    42.12     7  21:03           0    3.44e+03       0.346
  41                   JUNCTION      0.00    31.74     7  22:43           0    2.48e+03       0.125
  42                   JUNCTION      0.00    21.61     7  22:43           0    2.47e+03       0.124
  43                   JUNCTION      0.00    20.76     7  21:26           0    2.56e+03       0.099
  44                   JUNCTION      0.00    20.61     7  21:26           0    2.56e+03       0.110
  45                   JUNCTION      0.00    20.06     7  22:11           0    2.55e+03       0.169
  46                   JUNCTION      0.00    15.91     7  22:49           0    2.55e+03       0.134
  47                   JUNCTION      0.00    16.42     7  22:50           0    2.54e+03       0.075
  48                   JUNCTION      0.00    15.87     7  22:49           0    2.54e+03       0.081
  49                   JUNCTION      0.00    17.43     7  22:37           0    2.53e+03       0.116
  50                   JUNCTION      0.00    15.65     7  22:49           0    2.53e+03       0.118
  51                   JUNCTION      0.00    17.84     7  15:17           0    1.42e+04       0.015
  52                   JUNCTION      0.00    13.95     7  22:58           0    4.86e+04       0.001
  53                   JUNCTION      0.00    95.95     7  22:44           0         134       1.741
  54                   JUNCTION      0.00    18.81     7  22:47           0         141       0.932
  55                   JUNCTION      0.00    22.32     7  22:44           0         142       1.185
  56                   JUNCTION      0.00    15.27     7  18:58           0         164       4.711
  57                   JUNCTION      0.00    13.14     7  22:43           0        21.8      25.077
  58                   JUNCTION      0.00    12.61     7  22:16           0        16.6      32.382
  59                   JUNCTION      0.00    12.68     7  22:37           0        12.3      64.393
  60                   JUNCTION      0.00     0.00     0  00:00           0        3.57      -0.009
  61                   JUNCTION      0.00     0.00     0  00:00           0           0       0.000 gal
  62                   JUNCTION      0.00     0.00     0  00:00           0           0       0.000 gal
  63                   JUNCTION      0.00     0.00     0  00:00           0           0       0.000 gal
  64                   JUNCTION      0.00     0.00     0  00:00           0           0       0.000 gal
  65                   JUNCTION      0.00     0.00     0  00:00           0           0       0.000 gal
  66                   JUNCTION      0.00    18.53     7  23:08           0         151       1.557
  67                   JUNCTION      0.00    43.98     7  22:53           0         516       0.563
  70                   JUNCTION      0.00    22.03     7  22:49           0    2.08e+03       0.234
  71                   JUNCTION      0.00    14.35     7  22:50           0         325       0.806
  72                   JUNCTION      0.00   801.54     7  22:43           0         135       2.777
  73                   JUNCTION      0.00   581.73     7  22:44           0         134       3.090
  74                   JUNCTION      0.00    32.31     7  22:43           0        3.34      37.480
  75                   JUNCTION      0.00    94.67     7  22:43           0         119       1.634
  76                   JUNCTION      0.00    14.81     7  22:47           0        97.8       0.672
  77                   JUNCTION      0.00    18.58     7  22:47           0        18.8       4.909
  78                   JUNCTION      0.00    16.31     7  22:43           0         171       2.669
  79                   JUNCTION      0.00    19.02     7  22:43           0         553       0.516
  80                   JUNCTION      0.00    16.86     7  22:45           0         555       0.446
  81                   JUNCTION      0.00    20.18     7  22:45           0         680       0.308
  82                   JUNCTION      0.00    16.62     7  22:47           0    4.04e+03       0.031
  83                   JUNCTION      0.00    40.98     7  22:11           0    1.05e+03       0.867
  84                   JUNCTION      0.00    30.70     7  22:44           0    1.05e+03       0.375
  85                   JUNCTION      0.00    32.26     7  22:44           0    1.02e+03       0.154
  86                   JUNCTION      0.00    31.79     7  22:44           0    1.02e+03       0.159
  87                   JUNCTION      0.00    44.93     7  22:11           0    1.01e+03       0.617
  88                   JUNCTION      0.00    34.55     7  19:23           0    1.04e+03       0.383
  89                   JUNCTION      0.00    25.64     7  22:55           0    3.77e+03       0.079
  90                   JUNCTION      0.00    26.19     7  14:16           0    1.36e+04       0.024
  91                   JUNCTION      0.00    22.37     7  22:45           0    3.71e+04       0.002
  92                   JUNCTION      0.00    13.15     7  18:31           0    7.56e+03       0.010
  18                   JUNCTION      0.00    14.84     7  22:43           0         135       0.809
  100                  JUNCTION      0.00    12.47     7  19:18           0         137       1.509
  102                  JUNCTION      0.00     2.44     7  22:00           0        6.26     750.125
  103                  JUNCTION      0.00   525.67     7  15:26           0        72.2      15.067
  104                  JUNCTION      0.00   545.30     7  19:26           0         144       3.592
  105                  JUNCTION      0.00   563.45     7  19:28           0         157       4.623
  106                  JUNCTION      0.00   876.66     7  15:28           0         164       2.981
  107                  JUNCTION      0.00   802.82     7  19:29           0         159       3.025
  108                  JUNCTION      0.00  1216.78     7  19:23           0         150       1.633
  109                  JUNCTION      0.00  8614.75     7  15:18           0         154      -0.898
  110                  JUNCTION      0.00 10000.17     7  15:17           0         146       3.005
  111                  JUNCTION      0.00  5131.78     7  15:17           0         119       0.453
  112                  JUNCTION      0.00  3550.06     7  15:18           0        98.1       2.654
  113                  JUNCTION      0.00   609.11     7  22:43           0          96       6.229
  114                  JUNCTION      0.00   379.70     7  22:43           0        99.6       3.199
  115                  JUNCTION      0.00   352.39     7  15:17           0         109       7.654
  116                  JUNCTION      0.00   246.48     7  22:44           0         120      11.231
  117                  JUNCTION      0.00   315.25     7  19:23           0         129       8.447
  118                  JUNCTION      0.00   330.96     7  19:23           0         136       5.575
  119                  JUNCTION      0.00   363.88     7  19:23           0         138       2.726
  120                  JUNCTION      0.00   220.26     7  19:23           0         138       2.127
  121                  JUNCTION      0.00   229.35     7  19:35           0         135       0.150
  122                  JUNCTION      0.00   201.70     7  19:34           0         127       0.784
  123                  JUNCTION      0.00   191.75     7  19:52           0         133       2.848
  124                  JUNCTION      0.00   182.96     7  19:52           0         143       0.785
  125                  JUNCTION      0.00   186.09     7  20:04           0         137       2.350
  126                  JUNCTION      0.00    75.96     7  23:00           0         137       5.594
  127                  JUNCTION      0.00    65.90     8  00:00           0        34.2       6.411
  128                  JUNCTION      0.00    41.00     7  23:22           0        27.5       5.779
  129                  JUNCTION      0.00    22.08     7  23:23           0        15.6       6.124
  130                  JUNCTION      0.00    15.70     7  23:23           0        6.73       6.419
  131                  JUNCTION      0.00     0.00     0  00:00           0           0       0.000 gal
  132                  JUNCTION      0.00     0.00     0  00:00           0           0       0.000 gal
  133                  JUNCTION      0.00     0.00     0  00:00           0           0       0.000 gal
  134                  JUNCTION      0.00     0.00     0  00:00           0           0       0.000 gal
  135                  JUNCTION      0.00     0.00     0  00:00           0           0       0.000 gal
  136                  JUNCTION      0.00     0.00     0  00:00           0           0       0.000 gal
  137                  JUNCTION      0.00     0.00     0  00:00           0           0       0.000 gal
  138                  JUNCTION      0.00     0.00     0  00:00           0           0       0.000 gal
  139                  JUNCTION      0.00     0.00     0  00:00           0           0       0.000 gal
  140                  JUNCTION      0.00     0.00     0  00:00           0           0       0.000 gal
  141                  JUNCTION      0.00     0.00     0  00:00           0           0       0.000 gal
  142                  JUNCTION      0.00     0.00     0  00:00           0           0       0.000 gal
  143                  JUNCTION      0.00     0.00     0  00:00           0           0       0.000 gal
  148                  JUNCTION      0.00    36.31     7  22:44           0        8.84      26.022
  68                   OUTFALL       0.00     0.00     0  00:00           0        16.5       0.000
  69                   OUTFALL       0.00    16.04     7  22:43           0          97       0.000
  93                   OUTFALL       0.00     0.00     0  00:00           0           0       0.000 gal
  94                   OUTFALL       0.00     0.00     0  00:00           0    7.11e+03       0.000
  95                   OUTFALL       0.00     8.75     8  00:00           0    7.48e+03       0.000
  96                   OUTFALL       0.00     0.00     0  00:00           0           0       0.000 gal
  97                   OUTFALL       0.00     0.00     0  00:00           0           0       0.000 gal
  98                   OUTFALL       0.00     0.00     0  00:00           0         228       0.000
  99                   OUTFALL       0.00    62.47     7  22:44           0    1.84e+03       0.000
  101                  OUTFALL       0.00     4.29     8  00:00           0         590       0.000
  144                  OUTFALL       0.00     0.00     0  00:00           0           0       0.000 gal
  145                  OUTFALL       0.00     0.00     0  00:00           0           0       0.000 gal
  146                  OUTFALL       0.00     0.00     0  00:00           0           0       0.000 gal
  147                  OUTFALL       0.00     0.00     0  00:00           0           0       0.000 gal
  
  
  **********************
  Node Surcharge Summary
  **********************
  
  Surcharging occurs when water rises above the top of the highest conduit.
  ---------------------------------------------------------------------
                                               Max. Height   Min. Depth
                                   Hours       Above Crown    Below Rim
  Node                 Type      Surcharged           Feet         Feet
  ---------------------------------------------------------------------
  8                    JUNCTION       10.00         28.645        5.355
  9                    JUNCTION       10.00         28.627        5.373
  10                   JUNCTION       10.00         62.959        2.541
  11                   JUNCTION       10.00         72.842        2.658
  12                   JUNCTION       10.00          5.535        4.965
  13                   JUNCTION       10.00          1.411        6.589
  14                   JUNCTION       10.00          1.317        6.683
  15                   JUNCTION       10.00         14.066        8.934
  19                   JUNCTION       10.00         10.603        4.097
  20                   JUNCTION       10.00         12.857        9.143
  21                   JUNCTION       10.00         10.045       11.955
  22                   JUNCTION       10.00          3.466       20.534
  32                   JUNCTION       10.00         37.819       26.081
  33                   JUNCTION       10.00         34.720       29.180
  39                   JUNCTION       10.00          0.930       19.770
  40                   JUNCTION       10.00         22.025       18.675
  41                   JUNCTION       10.00         24.324       18.676
  42                   JUNCTION       10.00         51.705       11.295
  43                   JUNCTION       10.00         54.914        8.086
  46                   JUNCTION       10.00          6.834       26.466
  47                   JUNCTION       10.00          7.041       26.259
  48                   JUNCTION       10.00         19.356       24.944
  49                   JUNCTION       10.00          5.344       28.456
  50                   JUNCTION       10.00          5.315       28.485
  51                   JUNCTION       10.00          1.333       12.467
  56                   JUNCTION       10.00          2.644       21.056
  57                   JUNCTION       10.00          2.693       21.557
  58                   JUNCTION       10.00          6.217       24.083
  59                   JUNCTION       10.00          6.333       23.967
  78                   JUNCTION       10.00          5.639        4.861
  79                   JUNCTION       10.00          5.630        4.870
  80                   JUNCTION       10.00          0.862       12.238
  81                   JUNCTION       10.00          0.869       12.231
  83                   JUNCTION       10.00          8.219       11.781
  84                   JUNCTION       10.00          6.606       11.794
  85                   JUNCTION       10.00         34.144       19.256
  86                   JUNCTION       10.00         41.674       11.726
  89                   JUNCTION       10.00         27.371        6.029
  90                   JUNCTION       10.00         13.372       10.028
  18                   JUNCTION       10.00          4.881       13.519
  100                  JUNCTION       10.00         17.181       16.219
  102                  JUNCTION       10.00          6.049        9.281
  105                  JUNCTION        9.38          0.623       12.707
  109                  JUNCTION        9.94         21.330        0.000
  112                  JUNCTION        9.64         18.684        2.316
  113                  JUNCTION       10.00         73.705        7.295
  114                  JUNCTION       10.00         81.917        3.083
  115                  JUNCTION       10.00         52.000        0.000
  116                  JUNCTION       10.00         52.000        0.000
  117                  JUNCTION       10.00         91.269        8.731
  118                  JUNCTION       10.00          4.303       20.697
  126                  JUNCTION       10.00          1.306       15.794
  148                  JUNCTION       10.00          7.256        8.444
  
  
  *********************
  Node Flooding Summary
  *********************
  
  Flooding refers to all water that overflows a node, whether it ponds or not.
  --------------------------------------------------------------------------
                                                             Total   Maximum
                                 Maximum   Time of Max       Flood    Ponded
                        Hours       Rate    Occurrence      Volume     Depth
  Node                 Flooded       CFS   days hr:min    10^6 gal      Feet
  --------------------------------------------------------------------------
  109                     0.01   6630.19      7  15:18       0.090     0.000
  115                     0.01     95.77      7  22:43       0.000     0.000
  116                     0.01     30.92      7  22:43       0.000     0.000
  
  
  ***********************
  Outfall Loading Summary
  ***********************
  
  -----------------------------------------------------------
                         Flow       Avg       Max       Total
                         Freq      Flow      Flow      Volume
  Outfall Node           Pcnt       CFS       CFS    10^6 gal
  -----------------------------------------------------------
  68                     0.00      0.00      0.00      16.486
  69                   100.00      4.27     16.04      96.992
  93                     0.00      0.00      0.00       0.000
  94                     0.00      0.00      0.00    7106.258
  95                   100.00      8.68      8.75    7481.476
  96                     0.00      0.00      0.00       0.000
  97                     0.00      0.00      0.00       0.000
  98                     0.00      0.00      0.00     228.090
  99                    99.62      9.53     62.47    1836.918
  101                  100.00      4.28      4.29     590.052
  144                    0.00      0.00      0.00       0.000
  145                    0.00      0.00      0.00       0.000
  146                    0.00      0.00      0.00       0.000
  147                    0.00      0.00      0.00       0.000
  -----------------------------------------------------------
  System                28.54     26.76     91.53   17356.271
  
  
  ********************
  Link Flow Summary
  ********************
  
  -----------------------------------------------------------------------------
                                 Maximum  Time of Max   Maximum    Max/    Max/
                                  |Flow|   Occurrence   |Veloc|    Full    Full
  Link                 Type          CFS  days hr:min    ft/sec    Flow   Depth
  -----------------------------------------------------------------------------
  1                    CONDUIT      0.00     0  00:00      0.00    0.00    0.00
  2                    CONDUIT      0.00     0  00:00      0.00    0.00    0.37
  3                    CONDUIT      0.02     7  14:01      0.00    0.00    0.78
  4                    CONDUIT      0.01     7  14:00      0.00    0.00    0.32
  5                    CONDUIT      0.01     7  14:00      0.00    0.00    0.14
  6                    CONDUIT     39.71     7  22:45      0.18    0.00    0.41
  7                    CONDUIT     32.42     7  22:45      0.11    0.00    0.71
  8                    CONDUIT     33.66     7  22:45      0.04    0.01    1.00
  9                    CONDUIT     32.07     7  22:45      0.09    0.00    1.00
  10                   CONDUIT     31.91     7  22:45      0.09    0.01    1.00
  11                   CONDUIT     31.87     7  22:45      0.09    0.00    1.00
  12                   CONDUIT     31.34     7  22:45      0.06    0.00    1.00
  13                   CONDUIT     30.32     7  22:46      0.06    0.02    1.00
  14                   CONDUIT     34.00     7  22:46      0.07    0.00    1.00
  15                   CONDUIT     34.70     7  22:46      0.08    0.00    0.93
  19                   CONDUIT      5.00     7  17:58      0.01    0.00    1.00
  20                   CONDUIT     11.43     7  15:17      0.01    0.00    1.00
  21                   CONDUIT     17.01     7  18:50      0.03    0.00    1.00
  22                   CONDUIT     16.83     7  18:50      0.03    0.00    0.90
  23                   CONDUIT      9.68     7  22:43      0.07    0.00    0.33
  24                   CONDUIT      9.51     7  21:38      0.78    0.00    0.02
  25                   CONDUIT      9.10     7  22:26      0.04    0.00    0.30
  26                   CONDUIT     44.34     7  22:54      0.11    0.02    0.76
  27                   CONDUIT     51.99     7  22:54      0.08    0.00    0.85
  28                   CONDUIT     63.57     7  22:53      0.08    0.15    0.79
  29                   CONDUIT     33.51     7  22:53      0.08    0.00    0.94
  30                   CONDUIT     53.81     7  22:53      0.03    0.01    0.93
  31                   CONDUIT     20.44     7  22:58      0.05    0.00    1.00
  32                   CONDUIT     20.58     7  22:54      0.05    0.00    1.00
  33                   CONDUIT     20.36     7  22:58      0.05    0.00    1.00
  34                   CONDUIT      0.00     0  00:00      0.00    0.00    0.05
  35                   CONDUIT     15.05     7  14:22      0.16    0.00    0.06
  36                   CONDUIT     20.37     7  21:48      0.07    0.00    0.36
  37                   CONDUIT     39.46     7  23:06      0.04    0.01    1.00
  38                   CONDUIT     37.38     7  23:06      0.09    0.00    1.00
  39                   CONDUIT     31.74     7  22:43      0.04    0.09    1.00
  40                   CONDUIT     21.89     7  15:16      0.05    0.00    1.00
  41                   CONDUIT     20.76     7  21:26      0.09    0.01    1.00
  42                   CONDUIT     20.74     7  15:16      0.09    0.00    1.00
  43                   CONDUIT     20.06     7  22:11      0.04    0.12    0.98
  44                   CONDUIT     15.75     7  22:49      0.04    0.00    1.00
  45                   CONDUIT     15.91     7  22:49      0.04    0.02    1.00
  46                   CONDUIT     16.42     7  22:50      0.05    0.00    1.00
  47                   CONDUIT     15.87     7  22:49      0.04    0.00    1.00
  48                   CONDUIT     17.43     7  22:37      0.02    0.05    1.00
  49                   CONDUIT     15.65     7  22:49      0.04    0.00    1.00
  50                   CONDUIT     17.84     7  15:17      0.06    0.00    0.62
  51                   CONDUIT     12.47     7  19:18      0.04    0.00    0.68
  52                   CONDUIT     18.81     7  22:47      0.04    0.00    0.22
  53                   CONDUIT     14.52     7  22:44      0.06    0.00    0.66
  54                   CONDUIT     11.04     7  19:09      0.01    0.00    1.00
  55                   CONDUIT     10.35     7  17:22      0.03    0.00    1.00
  56                   CONDUIT     12.68     7  22:37      0.01    0.00    1.00
  57                   CONDUIT      0.00     7  14:00      0.00    0.00    0.50
  58                   CONDUIT      0.00     0  00:00      0.00    0.00    0.00
  59                   CONDUIT      0.00     0  00:00      0.00    0.00    0.00
  60                   CONDUIT      0.00     0  00:00      0.00    0.00    0.00
  61                   CONDUIT      0.00     0  00:00      0.00    0.00    0.00
  62                   CONDUIT      0.00     0  00:00      0.00    0.00    0.00
  63                   CONDUIT      0.00     0  00:00      0.00    0.00    0.30
  64                   CONDUIT     18.53     7  23:08      0.02    0.00    0.63
  65                   CONDUIT     27.23     7  22:53      0.06    0.00    0.85
  67                   CONDUIT     26.86     7  22:54      0.06    0.00    0.86
  68                   CONDUIT     15.98     7  22:54      0.02    0.00    1.00
  69                   CONDUIT    119.08     7  22:43      0.15    0.00    0.73
  70                   CONDUIT    682.47     7  22:43      0.34    0.02    1.00
  71                   CONDUIT     37.50     7  22:44      0.07    0.00    0.97
  72                   CONDUIT     69.90     7  22:43      0.20    0.01    1.00
  73                   CONDUIT     14.81     7  22:47      0.05    0.00    0.67
  74                   CONDUIT     18.58     7  22:47      0.05    0.00    0.85
  75                   CONDUIT     14.58     7  22:43      0.04    0.00    1.00
  76                   CONDUIT     16.31     7  22:43      0.02    0.04    1.00
  77                   CONDUIT     19.02     7  22:43      0.05    0.00    1.00
  78                   CONDUIT     16.86     7  22:45      0.02    0.05    1.00
  79                   CONDUIT     20.18     7  22:45      0.06    0.00    0.81
  80                   CONDUIT     40.98     7  22:11      0.03    0.07    1.00
  81                   CONDUIT     30.70     7  22:44      0.06    0.00    1.00
  82                   CONDUIT     32.26     7  22:44      0.06    0.00    1.00
  83                   CONDUIT     31.79     7  22:44      0.06    0.00    1.00
  84                   CONDUIT     44.93     7  22:11      0.02    0.00    0.91
  85                   CONDUIT     26.57     7  22:55      0.05    0.15    1.00
  86                   CONDUIT     25.64     7  22:55      0.05    0.00    1.00
  87                   CONDUIT     26.19     7  14:16      0.06    0.00    0.85
  88                   CONDUIT     22.37     7  22:45      0.15    0.00    0.24
  89                   CONDUIT      0.00     0  00:00      0.00    0.00    0.11
  90                   CONDUIT     23.52     7  21:48      0.06    0.00    0.51
  91                   CONDUIT     31.23     7  22:43      0.02    0.00    1.00
  92                   CONDUIT      0.00     0  00:00      0.00    0.00    0.50
  93                   CONDUIT     36.33     7  22:55      0.07    0.00    0.65
  94                   CONDUIT     41.61     7  22:53      0.23    0.01    1.00
  95                   CONDUIT      0.00     0  00:00      0.00    0.00    0.19
  96                   CONDUIT     16.04     7  22:43      0.13    0.00    0.14
  97                   CONDUIT      0.00     0  00:00      0.00    0.00    0.17
  98                   CONDUIT      4.29     8  00:00      0.03    0.00    0.17
  99                   CONDUIT      0.00     0  00:00      0.00    0.00    0.10
  100                  CONDUIT      8.75     8  00:00      0.06    0.00    0.13
  101                  CONDUIT      0.00     0  00:00      0.00    0.00    0.00
  102                  CONDUIT      0.00     0  00:00      0.00    0.00    0.29
  103                  CONDUIT     62.47     7  22:44      0.29    0.00    0.37
  104                  CONDUIT      0.00     0  00:00      0.00    0.00    0.36
  17                   CONDUIT     14.84     7  22:43      0.04    0.00    1.00
  18                   CONDUIT     12.47     7  19:18      0.03    0.00    1.00
  66                   CONDUIT      2.77     7  21:22      0.00    0.00    1.00
  105                  CONDUIT    525.67     7  15:26      0.38    0.23    0.83
  106                  CONDUIT    563.45     7  19:28      0.59    0.03    1.00
  107                  CONDUIT    572.30     7  19:28      0.75    0.03    0.81
  108                  CONDUIT    683.76     7  19:33      1.10    0.04    0.69
  109                  CONDUIT    597.99     7  19:24      1.14    0.03    0.55
  110                  CONDUIT   1216.78     7  19:23      1.90    0.03    0.68
  111                  CONDUIT   7867.48     7  15:18      8.28    2.22    1.00
  112                  CONDUIT   5186.23     7  15:18      4.51    0.59    0.61
  113                  CONDUIT   3507.59     7  15:18      5.64    1.89    1.00
  114                  CONDUIT    609.11     7  22:43      0.97    0.02    1.00
  115                  CONDUIT    379.70     7  22:43      0.60    0.05    1.00
  116                  CONDUIT    352.39     7  15:17      0.56    0.01    1.00
  117                  CONDUIT    246.48     7  22:44      0.11    0.02    1.00
  118                  CONDUIT    315.25     7  19:23      0.50    0.02    1.00
  119                  CONDUIT    330.96     7  19:23      0.53    0.01    1.00
  120                  CONDUIT    363.88     7  19:23      0.58    0.04    1.00
  121                  CONDUIT    228.68     7  19:47      0.21    0.00    0.47
  122                  CONDUIT    229.35     7  19:35      0.62    0.01    0.59
  123                  CONDUIT    201.70     7  19:34      2.63    0.05    0.18
  124                  CONDUIT     99.63     7  22:49      0.55    0.02    0.38
  125                  CONDUIT    191.75     7  19:52      0.89    0.02    0.46
  126                  CONDUIT    182.96     7  19:52      0.46    0.03    0.55
  127                  CONDUIT     74.65     7  23:00      0.23    0.01    0.69
  128                  CONDUIT     75.96     7  23:00      0.21    0.01    0.81
  129                  CONDUIT     44.44     7  23:15      0.09    0.01    0.81
  130                  CONDUIT     24.11     7  23:00      0.08    0.00    0.86
  131                  CONDUIT     17.08     7  23:15      0.07    0.00    0.66
  132                  CONDUIT      0.00     0  00:00      0.00    0.00    0.00
  133                  CONDUIT      0.00     0  00:00      0.00    0.00    0.00
  134                  CONDUIT      0.00     0  00:00      0.00    0.00    0.00
  135                  CONDUIT      0.00     0  00:00      0.00    0.00    0.00
  136                  CONDUIT      0.00     0  00:00      0.00    0.00    0.00
  137                  CONDUIT      0.00     0  00:00      0.00    0.00    0.00
  138                  CONDUIT      0.00     0  00:00      0.00    0.00    0.00
  139                  CONDUIT      0.00     0  00:00      0.00    0.00    0.00
  140                  CONDUIT      0.00     0  00:00      0.00    0.00    0.00
  141                  CONDUIT      0.00     0  00:00      0.00    0.00    0.00
  142                  CONDUIT      0.00     0  00:00      0.00    0.00    0.00
  143                  CONDUIT      0.00     0  00:00      0.00    0.00    0.00
  145                  CONDUIT      0.00     0  00:00      0.00    0.00    0.19
  146                  CONDUIT      0.00     0  00:00      0.00    0.00    0.00
  147                  CONDUIT      0.00     0  00:00      0.00    0.00    0.00
  148                  CONDUIT      0.00     0  00:00      0.00    0.00    0.50
  149                  CONDUIT     36.31     7  22:44      0.08    0.00    0.71
  
  
  ***************************
  Flow Classification Summary
  ***************************
  
  -------------------------------------------------------------------------------------
                      Adjusted    ---------- Fraction of Time in Flow Class ---------- 
                       /Actual         Up    Down  Sub   Sup   Up    Down  Norm  Inlet 
  Conduit               Length    Dry  Dry   Dry   Crit  Crit  Crit  Crit  Ltd   Ctrl  
  -------------------------------------------------------------------------------------
  1                       1.00   1.00  0.00  0.00  0.00  0.00  0.00  0.00  0.05  0.00
  2                       1.00   0.00  1.00  0.00  0.00  0.00  0.00  0.00  0.05  0.00
  3                       1.00   0.00  0.00  0.00  1.00  0.00  0.00  0.00  0.00  0.00
  4                       1.00   0.00  0.00  0.00  1.00  0.00  0.00  0.00  0.00  0.00
  5                       1.16   0.00  0.00  0.00  1.00  0.00  0.00  0.00  0.05  0.00
  6                       1.00   0.00  0.00  0.00  1.00  0.00  0.00  0.00  0.00  0.00
  7                       1.00   0.00  0.00  0.00  1.00  0.00  0.00  0.00  0.00  0.00
  8                       1.00   0.00  0.00  0.00  1.00  0.00  0.00  0.00  0.00  0.00
  9                       1.00   0.00  0.00  0.00  1.00  0.00  0.00  0.00  0.00  0.00
  10                      1.00   0.00  0.00  0.00  1.00  0.00  0.00  0.00  0.00  0.00
  11                      1.00   0.00  0.00  0.00  1.00  0.00  0.00  0.00  0.00  0.00
  12                      1.00   0.00  0.00  0.00  1.00  0.00  0.00  0.00  0.00  0.00
  13                      1.00   0.00  0.00  0.00  1.00  0.00  0.00  0.00  0.00  0.00
  14                      1.00   0.00  0.00  0.00  1.00  0.00  0.00  0.00  0.00  0.00
  15                      1.12   0.00  0.00  0.00  1.00  0.00  0.00  0.00  0.00  0.00
  19                      1.00   0.00  0.00  0.00  1.00  0.00  0.00  0.00  0.00  0.00
  20                      1.00   0.00  0.00  0.00  1.00  0.00  0.00  0.00  0.00  0.00
  21                      1.00   0.00  0.00  0.00  1.00  0.00  0.00  0.00  0.00  0.00
  22                      1.00   0.00  0.00  0.00  1.00  0.00  0.00  0.00  0.00  0.00
  23                      1.00   0.00  0.00  0.00  1.00  0.00  0.00  0.00  0.00  0.00
  24                      1.00   0.00  0.00  0.00  1.00  0.00  0.00  0.00  0.00  0.00
  25                      1.49   0.00  0.00  0.00  1.00  0.00  0.00  0.00  0.05  0.00
  26                      1.00   0.00  0.00  0.00  1.00  0.00  0.00  0.00  0.00  0.00
  27                      1.00   0.00  0.00  0.00  1.00  0.00  0.00  0.00  0.00  0.00
  28                      1.00   0.00  0.00  0.00  1.00  0.00  0.00  0.00  0.00  0.00
  29                      1.00   0.00  0.00  0.00  1.00  0.00  0.00  0.00  0.00  0.00
  30                      1.00   0.00  0.00  0.00  1.00  0.00  0.00  0.00  0.00  0.00
  31                      1.00   0.00  0.00  0.00  1.00  0.00  0.00  0.00  0.00  0.00
  32                      1.00   0.00  0.00  0.00  1.00  0.00  0.00  0.00  0.00  0.00
  33                      1.00   0.00  0.00  0.00  1.00  0.00  0.00  0.00  0.00  0.00
  34                      1.00   0.00  1.00  0.00  0.00  0.00  0.00  0.00  0.00  0.00
  35                      1.00   0.00  0.00  0.00  1.00  0.00  0.00  0.00  0.00  0.00
  36                      1.00   0.00  0.00  0.00  1.00  0.00  0.00  0.00  0.00  0.00
  37                      1.00   0.00  0.00  0.00  1.00  0.00  0.00  0.00  0.00  0.00
  38                      1.00   0.00  0.00  0.00  1.00  0.00  0.00  0.00  0.00  0.00
  39                      1.00   0.00  0.00  0.00  1.00  0.00  0.00  0.00  0.00  0.00
  40                      1.00   0.00  0.00  0.00  1.00  0.00  0.00  0.00  0.00  0.00
  41                      1.00   0.00  0.00  0.00  1.00  0.00  0.00  0.00  0.00  0.00
  42                      1.00   0.00  0.00  0.00  1.00  0.00  0.00  0.00  0.00  0.00
  43                      1.00   0.00  0.00  0.00  1.00  0.00  0.00  0.00  0.00  0.00
  44                      1.00   0.00  0.00  0.00  1.00  0.00  0.00  0.00  0.00  0.00
  45                      1.00   0.00  0.00  0.00  1.00  0.00  0.00  0.00  0.00  0.00
  46                      1.03   0.00  0.00  0.00  1.00  0.00  0.00  0.00  0.00  0.00
  47                      1.00   0.00  0.00  0.00  1.00  0.00  0.00  0.00  0.00  0.00
  48                      1.00   0.00  0.00  0.00  1.00  0.00  0.00  0.00  0.00  0.00
  49                      1.00   0.00  0.00  0.00  1.00  0.00  0.00  0.00  0.00  0.00
  50                      1.00   0.00  0.00  0.00  1.00  0.00  0.00  0.00  0.00  0.00
  51                      1.00   0.00  0.00  0.00  1.00  0.00  0.00  0.00  0.00  0.00
  52                      1.00   0.00  0.00  0.00  1.00  0.00  0.00  0.00  0.00  0.00
  53                      1.00   0.00  0.00  0.00  1.00  0.00  0.00  0.00  0.00  0.00
  54                      1.00   0.00  0.00  0.00  1.00  0.00  0.00  0.00  0.00  0.00
  55                      1.00   0.00  0.00  0.00  1.00  0.00  0.00  0.00  0.00  0.00
  56                      1.00   0.00  0.00  0.00  1.00  0.00  0.00  0.00  0.00  0.00
  57                      1.00   0.00  0.00  0.00  1.00  0.00  0.00  0.00  0.05  0.00
  58                      1.00   0.00  1.00  0.00  0.00  0.00  0.00  0.00  0.00  0.00
  59                      1.00   1.00  0.00  0.00  0.00  0.00  0.00  0.00  0.00  0.00
  60                      1.00   1.00  0.00  0.00  0.00  0.00  0.00  0.00  0.00  0.00
  61                      1.00   1.00  0.00  0.00  0.00  0.00  0.00  0.00  0.00  0.00
  62                      1.04   1.00  0.00  0.00  0.00  0.00  0.00  0.00  0.00  0.00
  63                      1.00   0.00  1.00  0.00  0.00  0.00  0.00  0.00  0.00  0.00
  64                      1.00   0.00  0.00  0.00  1.00  0.00  0.00  0.00  0.00  0.00
  65                      1.00   0.00  0.00  0.00  1.00  0.00  0.00  0.00  0.00  0.00
  67                      1.00   0.00  0.00  0.00  1.00  0.00  0.00  0.00  0.00  0.00
  68                      1.95   0.00  0.00  0.00  1.00  0.00  0.00  0.00  0.00  0.00
  69                      3.49   0.00  0.00  0.00  1.00  0.00  0.00  0.00  0.00  0.00
  70                      1.00   0.00  0.00  0.00  1.00  0.00  0.00  0.00  0.00  0.00
  71                      1.63   0.00  0.00  0.00  1.00  0.00  0.00  0.00  0.00  0.00
  72                      1.00   0.00  0.00  0.00  1.00  0.00  0.00  0.00  0.00  0.00
  73                      1.00   0.00  0.00  0.00  1.00  0.00  0.00  0.00  0.00  0.00
  74                      1.00   0.00  0.00  0.00  1.00  0.00  0.00  0.00  0.00  0.00
  75                      1.00   0.00  0.00  0.00  1.00  0.00  0.00  0.00  0.00  0.00
  76                      1.00   0.00  0.00  0.00  1.00  0.00  0.00  0.00  0.00  0.00
  77                      1.00   0.00  0.00  0.00  1.00  0.00  0.00  0.00  0.00  0.00
  78                      1.00   0.00  0.00  0.00  1.00  0.00  0.00  0.00  0.00  0.00
  79                      1.00   0.00  0.00  0.00  1.00  0.00  0.00  0.00  0.00  0.00
  80                      1.00   0.00  0.00  0.00  1.00  0.00  0.00  0.00  0.00  0.00
  81                      1.00   0.00  0.00  0.00  1.00  0.00  0.00  0.00  0.00  0.00
  82                      1.00   0.00  0.00  0.00  1.00  0.00  0.00  0.00  0.00  0.00
  83                      1.00   0.00  0.00  0.00  1.00  0.00  0.00  0.00  0.00  0.00
  84                      1.00   0.00  0.00  0.00  1.00  0.00  0.00  0.00  0.00  0.00
  85                      1.00   0.00  0.00  0.00  1.00  0.00  0.00  0.00  0.00  0.00
  86                      1.00   0.00  0.00  0.00  1.00  0.00  0.00  0.00  0.00  0.00
  87                      1.00   0.00  0.00  0.00  1.00  0.00  0.00  0.00  0.00  0.00
  88                      1.04   0.00  0.00  0.00  1.00  0.00  0.00  0.00  0.00  0.00
  89                      1.00   0.00  1.00  0.00  0.00  0.00  0.00  0.00  0.00  0.00
  90                      9.81   0.00  0.00  0.00  1.00  0.00  0.00  0.00  0.00  0.00
  91                     40.90   0.00  0.00  0.00  1.00  0.00  0.00  0.00  0.00  0.00
  92                    776.95   0.00  1.00  0.00  0.00  0.00  0.00  0.00  0.00  0.00
  93                      8.28   0.00  0.00  0.00  1.00  0.00  0.00  0.00  0.00  0.00
  94                      1.46   0.00  0.00  0.00  1.00  0.00  0.00  0.00  0.00  0.00
  95                      1.00   0.00  1.00  0.00  0.00  0.00  0.00  0.00  0.05  0.00
  96                      1.93   0.00  0.00  0.00  1.00  0.00  0.00  0.00  0.00  0.00
  97                      1.21   0.00  1.00  0.00  0.00  0.00  0.00  0.00  0.00  0.00
  98                      1.20   0.00  0.00  0.00  1.00  0.00  0.00  0.00  0.05  0.00
  99                      1.35   0.00  1.00  0.00  0.00  0.00  0.00  0.00  0.05  0.00
  100                     1.54   0.00  0.00  0.00  1.00  0.00  0.00  0.00  0.05  0.00
  101                     1.00   1.00  0.00  0.00  0.00  0.00  0.00  0.00  0.00  0.00
  102                     1.16   0.00  1.00  0.00  0.00  0.00  0.00  0.00  0.00  0.00
  103                     1.00   0.00  0.00  0.00  1.00  0.00  0.00  0.00  0.00  0.00
  104                     1.00   0.00  1.00  0.00  0.00  0.00  0.00  0.00  0.05  0.00
  17                      1.00   0.00  0.00  0.00  1.00  0.00  0.00  0.00  0.00  0.00
  18                      1.00   0.00  0.00  0.00  1.00  0.00  0.00  0.00  0.00  0.00
  66                      1.00   0.00  0.00  0.00  1.00  0.00  0.00  0.00  0.00  0.00
  105                     1.00   0.00  0.00  0.00  1.00  0.00  0.00  0.00  0.00  0.00
  106                     1.00   0.00  0.00  0.00  1.00  0.00  0.00  0.00  0.00  0.00
  107                     1.00   0.00  0.00  0.00  1.00  0.00  0.00  0.00  0.00  0.00
  108                     1.00   0.00  0.00  0.00  1.00  0.00  0.00  0.00  0.00  0.00
  109                     1.00   0.00  0.00  0.00  1.00  0.00  0.00  0.00  0.00  0.00
  110                     1.00   0.00  0.00  0.00  1.00  0.00  0.00  0.00  0.00  0.00
  111                     1.00   0.00  0.00  0.00  1.00  0.00  0.00  0.00  0.00  0.00
  112                     1.00   0.00  0.00  0.00  1.00  0.00  0.00  0.00  0.00  0.00
  113                     1.31   0.00  0.00  0.00  1.00  0.00  0.00  0.00  0.00  0.00
  114                     1.00   0.00  0.00  0.00  1.00  0.00  0.00  0.00  0.00  0.00
  115                     1.00   0.00  0.00  0.00  1.00  0.00  0.00  0.00  0.00  0.00
  116                     1.00   0.00  0.00  0.00  1.00  0.00  0.00  0.00  0.00  0.00
  117                     1.00   0.00  0.00  0.00  1.00  0.00  0.00  0.00  0.00  0.00
  118                     1.00   0.00  0.00  0.00  1.00  0.00  0.00  0.00  0.00  0.00
  119                     1.00   0.00  0.00  0.00  1.00  0.00  0.00  0.00  0.00  0.00
  120                     1.00   0.00  0.00  0.00  1.00  0.00  0.00  0.00  0.00  0.00
  121                     1.00   0.00  0.00  0.00  1.00  0.00  0.00  0.00  0.00  0.00
  122                     1.00   0.00  0.00  0.00  1.00  0.00  0.00  0.00  0.00  0.00
  123                     1.27   0.00  0.00  0.00  1.00  0.00  0.00  0.00  0.00  0.00
  124                     1.00   0.00  0.00  0.00  1.00  0.00  0.00  0.00  0.00  0.00
  125                     1.00   0.00  0.00  0.00  1.00  0.00  0.00  0.00  0.00  0.00
  126                     1.00   0.00  0.00  0.00  1.00  0.00  0.00  0.00  0.00  0.00
  127                     1.00   0.00  0.00  0.00  1.00  0.00  0.00  0.00  0.00  0.00
  128                     1.00   0.00  0.00  0.00  1.00  0.00  0.00  0.00  0.00  0.00
  129                     1.00   0.00  0.00  0.00  1.00  0.00  0.00  0.00  0.00  0.00
  130                     1.00   0.00  0.00  0.00  1.00  0.00  0.00  0.00  0.00  0.00
  131                     1.00   0.00  0.00  0.00  1.00  0.00  0.00  0.00  0.00  0.00
  132                     1.85   1.00  0.00  0.00  0.00  0.00  0.00  0.00  0.00  0.00
  133                     1.00   1.00  0.00  0.00  0.00  0.00  0.00  0.00  0.00  0.00
  134                     1.00   1.00  0.00  0.00  0.00  0.00  0.00  0.00  0.00  0.00
  135                     1.12   1.00  0.00  0.00  0.00  0.00  0.00  0.00  0.00  0.00
  136                     1.00   1.00  0.00  0.00  0.00  0.00  0.00  0.00  0.00  0.00
  137                     1.00   1.00  0.00  0.00  0.00  0.00  0.00  0.00  0.00  0.00
  138                     1.00   1.00  0.00  0.00  0.00  0.00  0.00  0.00  0.00  0.00
  139                     1.00   1.00  0.00  0.00  0.00  0.00  0.00  0.00  0.00  0.00
  140                     1.33   1.00  0.00  0.00  0.00  0.00  0.00  0.00  0.00  0.00
  141                     1.18   1.00  0.00  0.00  0.00  0.00  0.00  0.00  0.00  0.00
  142                     1.00   1.00  0.00  0.00  0.00  0.00  0.00  0.00  0.00  0.00
  143                     1.00   1.00  0.00  0.00  0.00  0.00  0.00  0.00  0.00  0.00
  145                     1.00   0.00  1.00  0.00  0.00  0.00  0.00  0.00  0.00  0.00
  146                     2.31   1.00  0.00  0.00  0.00  0.00  0.00  0.00  0.00  0.00
  147                    90.89   1.00  0.00  0.00  0.00  0.00  0.00  0.00  0.00  0.00
  148                     2.61   0.00  1.00  0.00  0.00  0.00  0.00  0.00  0.00  0.00
  149                     1.00   0.00  0.00  0.00  1.00  0.00  0.00  0.00  0.00  0.00
  
  
  *************************
  Conduit Surcharge Summary
  *************************
  
  ----------------------------------------------------------------------------
                                                           Hours        Hours 
                         --------- Hours Full --------   Above Full   Capacity
  Conduit                Both Ends  Upstream  Dnstream   Normal Flow   Limited
  ----------------------------------------------------------------------------
  7                           0.01      0.01     10.00      0.01         0.01
  8                          10.00     10.00     10.00      0.01         1.49
  9                          10.00     10.00     10.00      0.01         0.01
  10                         10.00     10.00     10.00      0.01         0.01
  11                         10.00     10.00     10.00      0.01         0.01
  12                         10.00     10.00     10.00      0.01         0.01
  13                         10.00     10.00     10.00      0.01         0.01
  14                         10.00     10.00     10.00      0.01         0.01
  15                          0.01      0.01     10.00      0.01         0.01
  19                         10.00     10.00     10.00      0.01         0.01
  20                         10.00     10.00     10.00      0.01         0.01
  21                         10.00     10.00     10.00      0.01         0.01
  22                          0.01      0.01     10.00      0.01         0.01
  29                          0.01      0.01     10.00      0.01         0.01
  31                         10.00     10.00     10.00      0.01         0.01
  32                         10.00     10.00     10.00      0.01         0.01
  33                         10.00     10.00     10.00      0.01         0.01
  37                         10.00     10.00     10.00      0.01         0.01
  38                         10.00     10.00     10.00      0.01         0.01
  39                         10.00     10.00     10.00      0.01         4.80
  40                         10.00     10.00     10.00      0.01         0.01
  41                         10.00     10.00     10.00      0.01         0.01
  42                         10.00     10.00     10.00      0.01         0.01
  44                         10.00     10.00     10.00      0.01         0.01
  45                         10.00     10.00     10.00      0.01         0.01
  46                         10.00     10.00     10.00      0.01         0.01
  47                         10.00     10.00     10.00      0.01         0.01
  48                         10.00     10.00     10.00      0.01         4.88
  49                         10.00     10.00     10.00      0.01         0.01
  50                          0.01      0.01     10.00      0.01         0.01
  51                          0.01      0.01     10.00      0.01         0.01
  53                          0.01      0.01     10.00      0.01         0.01
  54                         10.00     10.00     10.00      0.01         0.01
  55                         10.00     10.00     10.00      0.01         0.01
  56                         10.00     10.00     10.00      0.01         3.84
  57                          0.01      0.01     10.00      0.01         0.01
  65                          0.01      0.01     10.00      0.01         0.01
  68                         10.00     10.00     10.00      0.01         0.01
  70                          9.99      9.99     10.00      0.01         0.01
  71                          0.01      0.01     10.00      0.01         0.01
  72                         10.00     10.00     10.00      0.01         0.01
  74                          0.01      0.01     10.00      0.01         0.01
  75                         10.00     10.00     10.00      0.01         0.01
  76                         10.00     10.00     10.00      0.01         8.24
  77                         10.00     10.00     10.00      0.01         0.01
  78                         10.00     10.00     10.00      0.01         2.57
  79                          0.01      0.01     10.00      0.01         0.01
  80                         10.00     10.00     10.00      0.01         4.78
  81                         10.00     10.00     10.00      0.01         0.01
  82                         10.00     10.00     10.00      0.01         0.01
  83                         10.00     10.00     10.00      0.01         0.01
  85                         10.00     10.00     10.00      0.01         4.69
  86                         10.00     10.00     10.00      0.01         0.01
  87                          0.01      0.01     10.00      0.01         0.01
  90                          0.01      0.01     10.00      0.01         0.01
  91                         10.00     10.00     10.00      0.01         0.01
  93                          0.01      0.01     10.00      0.01         0.01
  94                         10.00     10.00     10.00      0.01         0.01
  17                         10.00     10.00     10.00      0.01         0.01
  18                         10.00     10.00     10.00      0.01         0.01
  66                         10.00     10.00     10.00      0.01         0.01
  106                         9.37      9.37     10.00      0.01         0.01
  107                         0.01      0.01      9.37      0.01         0.01
  110                         0.01      0.01      9.94      0.01         0.01
  111                         9.90      9.94      9.93      0.03         1.33
  113                         9.47      9.59      9.61      0.03         0.76
  114                         9.61      9.61     10.00      0.01         0.01
  115                        10.00     10.00     10.00      0.01         0.01
  116                        10.00     10.00     10.00      0.01         0.01
  117                        10.00     10.00     10.00      0.01         0.01
  118                        10.00     10.00     10.00      0.01         0.01
  119                        10.00     10.00     10.00      0.01         0.01
  120                        10.00     10.00     10.00      0.01         0.01
  122                         0.01      0.01      9.96      0.01         0.01
  127                         0.01      0.01     10.00      0.01         0.01
  128                         0.01      0.01     10.00      0.01         0.01
  149                         0.01      0.01     10.00      0.01         0.01
  
  
  ************
  Node Results
  ************
  
  <<< Node 1 >>>
  ----------------------------------------------------------------
                           Inflow  Flooding     Depth      Head
  Date        Time            CFS       CFS      feet      feet
  ----------------------------------------------------------------
   01/08/2020 14:00:00      0.000     0.000     0.000    10.010
   01/08/2020 14:15:00      0.000     0.000     0.000    10.010
   01/08/2020 14:30:00      0.000     0.000     0.000    10.010
   01/08/2020 14:45:00      0.000     0.000     0.000    10.010
   01/08/2020 15:00:00      0.000     0.000     0.000    10.010
   01/08/2020 15:15:00      0.000     0.000     0.000    10.010
   01/08/2020 15:30:00      0.000     0.000     0.000    10.010
   01/08/2020 15:45:00      0.000     0.000     0.000    10.010
   01/08/2020 16:00:00      0.000     0.000     0.000    10.010
   01/08/2020 16:15:00      0.000     0.000     0.000    10.010
   01/08/2020 16:30:00      0.000     0.000     0.000    10.010
   01/08/2020 16:45:00      0.000     0.000     0.000    10.010
   01/08/2020 17:00:00      0.000     0.000     0.000    10.010
   01/08/2020 17:15:00      0.000     0.000     0.000    10.010
   01/08/2020 17:30:00      0.000     0.000     0.000    10.010
   01/08/2020 17:45:00      0.000     0.000     0.000    10.010
   01/08/2020 18:00:00      0.000     0.000     0.000    10.010
   01/08/2020 18:15:00      0.000     0.000     0.000    10.010
   01/08/2020 18:30:00      0.000     0.000     0.000    10.010
   01/08/2020 18:45:00      0.000     0.000     0.000    10.010
   01/08/2020 19:00:00      0.000     0.000     0.000    10.010
   01/08/2020 19:15:00      0.000     0.000     0.000    10.010
   01/08/2020 19:30:00      0.000     0.000     0.000    10.010
   01/08/2020 19:45:00      0.000     0.000     0.000    10.010
   01/08/2020 20:00:00      0.000     0.000     0.000    10.010
   01/08/2020 20:15:00      0.000     0.000     0.000    10.010
   01/08/2020 20:30:00      0.000     0.000     0.000    10.010
   01/08/2020 20:45:00      0.000     0.000     0.000    10.010
   01/08/2020 21:00:00      0.000     0.000     0.000    10.010
   01/08/2020 21:15:00      0.000     0.000     0.000    10.010
   01/08/2020 21:30:00      0.000     0.000     0.000    10.010
   01/08/2020 21:45:00      0.000     0.000     0.000    10.010
   01/08/2020 22:00:00      0.000     0.000     0.000    10.010
   01/08/2020 22:15:00      0.000     0.000     0.000    10.010
   01/08/2020 22:30:00      0.000     0.000     0.000    10.010
   01/08/2020 22:45:00      0.000     0.000     0.000    10.010
   01/08/2020 23:00:00      0.000     0.000     0.000    10.010
   01/08/2020 23:15:00      0.000     0.000     0.000    10.010
   01/08/2020 23:30:00      0.000     0.000     0.000    10.010
   01/08/2020 23:45:00      0.000     0.000     0.000    10.010
   01/09/2020 00:00:00      0.000     0.000     0.000    10.010
  
  
  <<< Node 2 >>>
  ----------------------------------------------------------------
                           Inflow  Flooding     Depth      Head
  Date        Time            CFS       CFS      feet      feet
  ----------------------------------------------------------------
   01/08/2020 14:00:00      0.000     0.000     0.000     8.990
   01/08/2020 14:15:00      0.000     0.000     0.000     8.990
   01/08/2020 14:30:00      0.000     0.000     0.000     8.990
   01/08/2020 14:45:00      0.000     0.000     0.000     8.990
   01/08/2020 15:00:00      0.000     0.000     0.000     8.990
   01/08/2020 15:15:00      0.000     0.000     0.000     8.990
   01/08/2020 15:30:00      0.000     0.000     0.000     8.990
   01/08/2020 15:45:00      0.000     0.000     0.000     8.990
   01/08/2020 16:00:00      0.000     0.000     0.000     8.990
   01/08/2020 16:15:00      0.000     0.000     0.000     8.990
   01/08/2020 16:30:00      0.000     0.000     0.000     8.990
   01/08/2020 16:45:00      0.000     0.000     0.000     8.990
   01/08/2020 17:00:00      0.000     0.000     0.000     8.990
   01/08/2020 17:15:00      0.000     0.000     0.000     8.990
   01/08/2020 17:30:00      0.000     0.000     0.000     8.990
   01/08/2020 17:45:00      0.000     0.000     0.000     8.990
   01/08/2020 18:00:00      0.000     0.000     0.000     8.990
   01/08/2020 18:15:00      0.000     0.000     0.000     8.990
   01/08/2020 18:30:00      0.000     0.000     0.000     8.990
   01/08/2020 18:45:00      0.000     0.000     0.000     8.990
   01/08/2020 19:00:00      0.000     0.000     0.000     8.990
   01/08/2020 19:15:00      0.000     0.000     0.000     8.990
   01/08/2020 19:30:00      0.000     0.000     0.000     8.990
   01/08/2020 19:45:00      0.000     0.000     0.000     8.990
   01/08/2020 20:00:00      0.000     0.000     0.000     8.990
   01/08/2020 20:15:00      0.000     0.000     0.000     8.990
   01/08/2020 20:30:00      0.000     0.000     0.000     8.990
   01/08/2020 20:45:00      0.000     0.000     0.000     8.990
   01/08/2020 21:00:00      0.000     0.000     0.000     8.990
   01/08/2020 21:15:00      0.000     0.000     0.000     8.990
   01/08/2020 21:30:00      0.000     0.000     0.000     8.990
   01/08/2020 21:45:00      0.000     0.000     0.000     8.990
   01/08/2020 22:00:00      0.000     0.000     0.000     8.990
   01/08/2020 22:15:00      0.000     0.000     0.000     8.990
   01/08/2020 22:30:00      0.000     0.000     0.000     8.990
   01/08/2020 22:45:00      0.000     0.000     0.000     8.990
   01/08/2020 23:00:00      0.000     0.000     0.000     8.990
   01/08/2020 23:15:00      0.000     0.000     0.000     8.990
   01/08/2020 23:30:00      0.000     0.000     0.000     8.990
   01/08/2020 23:45:00      0.000     0.000     0.000     8.990
   01/09/2020 00:00:00      0.000     0.000     0.000     8.990
  
  
  <<< Node 3 >>>
  ----------------------------------------------------------------
                           Inflow  Flooding     Depth      Head
  Date        Time            CFS       CFS      feet      feet
  ----------------------------------------------------------------
   01/08/2020 14:00:00      0.000     0.000    11.811     8.591
   01/08/2020 14:15:00      0.000     0.000    11.811     8.591
   01/08/2020 14:30:00      0.000     0.000    11.811     8.591
   01/08/2020 14:45:00      0.000     0.000    11.811     8.591
   01/08/2020 15:00:00      0.000     0.000    11.811     8.591
   01/08/2020 15:15:00      0.000     0.000    11.811     8.591
   01/08/2020 15:30:00      0.000     0.000    11.811     8.591
   01/08/2020 15:45:00      0.000     0.000    11.811     8.591
   01/08/2020 16:00:00      0.000     0.000    11.811     8.591
   01/08/2020 16:15:00      0.000     0.000    11.811     8.591
   01/08/2020 16:30:00      0.000     0.000    11.811     8.591
   01/08/2020 16:45:00      0.000     0.000    11.811     8.591
   01/08/2020 17:00:00      0.000     0.000    11.811     8.591
   01/08/2020 17:15:00      0.000     0.000    11.811     8.591
   01/08/2020 17:30:00      0.000     0.000    11.811     8.591
   01/08/2020 17:45:00      0.000     0.000    11.811     8.591
   01/08/2020 18:00:00      0.000     0.000    11.811     8.591
   01/08/2020 18:15:00      0.000     0.000    11.811     8.591
   01/08/2020 18:30:00      0.000     0.000    11.811     8.591
   01/08/2020 18:45:00      0.000     0.000    11.811     8.591
   01/08/2020 19:00:00      0.000     0.000    11.811     8.591
   01/08/2020 19:15:00      0.002     0.000    11.811     8.591
   01/08/2020 19:30:00      0.000     0.000    11.811     8.591
   01/08/2020 19:45:00      0.000     0.000    11.811     8.591
   01/08/2020 20:00:00      0.000     0.000    11.811     8.591
   01/08/2020 20:15:00      0.000     0.000    11.810     8.590
   01/08/2020 20:30:00      0.000     0.000    11.810     8.590
   01/08/2020 20:45:00      0.000     0.000    11.810     8.590
   01/08/2020 21:00:00      0.000     0.000    11.810     8.590
   01/08/2020 21:15:00      0.000     0.000    11.810     8.590
[...]
   01/08/2020 16:15:00      0.000     0.000     0.000     0.000
   01/08/2020 16:30:00      0.000     0.000     0.000     0.000
   01/08/2020 16:45:00      0.000     0.000     0.000     0.000
   01/08/2020 17:00:00      0.000     0.000     0.000     0.000
   01/08/2020 17:15:00      0.000     0.000     0.000     0.000
   01/08/2020 17:30:00      0.000     0.000     0.000     0.000
   01/08/2020 17:45:00      0.000     0.000     0.000     0.000
   01/08/2020 18:00:00      0.000     0.000     0.000     0.000
   01/08/2020 18:15:00      0.000     0.000     0.000     0.000
   01/08/2020 18:30:00      0.000     0.000     0.000     0.000
   01/08/2020 18:45:00      0.000     0.000     0.000     0.000
   01/08/2020 19:00:00      0.000     0.000     0.000     0.000
   01/08/2020 19:15:00      0.000     0.000     0.000     0.000
   01/08/2020 19:30:00      0.000     0.000     0.000     0.000
   01/08/2020 19:45:00      0.000     0.000     0.000     0.000
   01/08/2020 20:00:00      0.000     0.000     0.000     0.000
   01/08/2020 20:15:00      0.000     0.000     0.000     0.000
   01/08/2020 20:30:00      0.000     0.000     0.000     0.000
   01/08/2020 20:45:00      0.000     0.000     0.000     0.000
   01/08/2020 21:00:00      0.000     0.000     0.000     0.000
   01/08/2020 21:15:00      0.000     0.000     0.000     0.000
   01/08/2020 21:30:00      0.000     0.000     0.000     0.000
   01/08/2020 21:45:00      0.000     0.000     0.000     0.000
   01/08/2020 22:00:00      0.000     0.000     0.000     0.000
   01/08/2020 22:15:00      0.000     0.000     0.000     0.000
   01/08/2020 22:30:00      0.000     0.000     0.000     0.000
   01/08/2020 22:45:00      0.000     0.000     0.000     0.000
   01/08/2020 23:00:00      0.000     0.000     0.000     0.000
   01/08/2020 23:15:00      0.000     0.000     0.000     0.000
   01/08/2020 23:30:00      0.000     0.000     0.000     0.000
   01/08/2020 23:45:00      0.000     0.000     0.000     0.000
   01/09/2020 00:00:00      0.000     0.000     0.000     0.000
  
  
  <<< Link 143 >>>
  ----------------------------------------------------------------
                             Flow  Velocity     Depth  Capacity/
  Date        Time            CFS    ft/sec      feet   Setting 
  ----------------------------------------------------------------
   01/08/2020 14:00:00      0.000     0.000     0.000     0.000
   01/08/2020 14:15:00      0.000     0.000     0.000     0.000
   01/08/2020 14:30:00      0.000     0.000     0.000     0.000
   01/08/2020 14:45:00      0.000     0.000     0.000     0.000
   01/08/2020 15:00:00      0.000     0.000     0.000     0.000
   01/08/2020 15:15:00      0.000     0.000     0.000     0.000
   01/08/2020 15:30:00      0.000     0.000     0.000     0.000
   01/08/2020 15:45:00      0.000     0.000     0.000     0.000
   01/08/2020 16:00:00      0.000     0.000     0.000     0.000
   01/08/2020 16:15:00      0.000     0.000     0.000     0.000
   01/08/2020 16:30:00      0.000     0.000     0.000     0.000
   01/08/2020 16:45:00      0.000     0.000     0.000     0.000
   01/08/2020 17:00:00      0.000     0.000     0.000     0.000
   01/08/2020 17:15:00      0.000     0.000     0.000     0.000
   01/08/2020 17:30:00      0.000     0.000     0.000     0.000
   01/08/2020 17:45:00      0.000     0.000     0.000     0.000
   01/08/2020 18:00:00      0.000     0.000     0.000     0.000
   01/08/2020 18:15:00      0.000     0.000     0.000     0.000
   01/08/2020 18:30:00      0.000     0.000     0.000     0.000
   01/08/2020 18:45:00      0.000     0.000     0.000     0.000
   01/08/2020 19:00:00      0.000     0.000     0.000     0.000
   01/08/2020 19:15:00      0.000     0.000     0.000     0.000
   01/08/2020 19:30:00      0.000     0.000     0.000     0.000
   01/08/2020 19:45:00      0.000     0.000     0.000     0.000
   01/08/2020 20:00:00      0.000     0.000     0.000     0.000
   01/08/2020 20:15:00      0.000     0.000     0.000     0.000
   01/08/2020 20:30:00      0.000     0.000     0.000     0.000
   01/08/2020 20:45:00      0.000     0.000     0.000     0.000
   01/08/2020 21:00:00      0.000     0.000     0.000     0.000
   01/08/2020 21:15:00      0.000     0.000     0.000     0.000
   01/08/2020 21:30:00      0.000     0.000     0.000     0.000
   01/08/2020 21:45:00      0.000     0.000     0.000     0.000
   01/08/2020 22:00:00      0.000     0.000     0.000     0.000
   01/08/2020 22:15:00      0.000     0.000     0.000     0.000
   01/08/2020 22:30:00      0.000     0.000     0.000     0.000
   01/08/2020 22:45:00      0.000     0.000     0.000     0.000
   01/08/2020 23:00:00      0.000     0.000     0.000     0.000
   01/08/2020 23:15:00      0.000     0.000     0.000     0.000
   01/08/2020 23:30:00      0.000     0.000     0.000     0.000
   01/08/2020 23:45:00      0.000     0.000     0.000     0.000
   01/09/2020 00:00:00      0.000     0.000     0.000     0.000
  
  
  <<< Link 145 >>>
  ----------------------------------------------------------------
                             Flow  Velocity     Depth  Capacity/
  Date        Time            CFS    ft/sec      feet   Setting 
  ----------------------------------------------------------------
   01/08/2020 14:00:00     -0.000    -0.000     2.470     0.165
   01/08/2020 14:15:00     -0.000    -0.000     2.449     0.163
   01/08/2020 14:30:00     -0.000    -0.000     2.492     0.166
   01/08/2020 14:45:00     -0.000    -0.000     2.479     0.165
   01/08/2020 15:00:00     -0.000    -0.000     2.534     0.169
   01/08/2020 15:15:00     -0.000    -0.000     2.524     0.168
   01/08/2020 15:30:00     -0.000    -0.000     2.490     0.166
   01/08/2020 15:45:00     -0.000    -0.000     2.484     0.166
   01/08/2020 16:00:00     -0.000    -0.000     2.439     0.163
   01/08/2020 16:15:00     -0.000    -0.000     2.519     0.168
   01/08/2020 16:30:00     -0.000    -0.000     2.556     0.170
   01/08/2020 16:45:00     -0.000    -0.000     2.535     0.169
   01/08/2020 17:00:00     -0.000    -0.000     2.549     0.170
   01/08/2020 17:15:00     -0.000    -0.000     2.480     0.165
   01/08/2020 17:30:00     -0.000    -0.000     2.467     0.164
   01/08/2020 17:45:00     -0.000    -0.000     2.509     0.167
   01/08/2020 18:00:00     -0.000    -0.000     2.501     0.167
   01/08/2020 18:15:00     -0.000    -0.000     2.592     0.173
   01/08/2020 18:30:00     -0.000    -0.000     2.556     0.170
   01/08/2020 18:45:00     -0.000    -0.000     2.519     0.168
   01/08/2020 19:00:00     -0.000    -0.000     2.538     0.169
   01/08/2020 19:15:00     -0.000    -0.000     2.543     0.170
   01/08/2020 19:30:00     -0.000    -0.000     2.567     0.171
   01/08/2020 19:45:00     -0.000    -0.000     2.673     0.178
   01/08/2020 20:00:00     -0.000    -0.000     2.577     0.172
   01/08/2020 20:15:00     -0.000    -0.000     2.629     0.175
   01/08/2020 20:30:00     -0.000    -0.000     2.592     0.173
   01/08/2020 20:45:00     -0.000    -0.000     2.559     0.171
   01/08/2020 21:00:00     -0.000    -0.000     2.634     0.176
   01/08/2020 21:15:00     -0.000    -0.000     2.609     0.174
   01/08/2020 21:30:00     -0.000    -0.000     2.637     0.176
   01/08/2020 21:45:00     -0.000    -0.000     2.662     0.177
   01/08/2020 22:00:00     -0.000    -0.000     2.570     0.171
   01/08/2020 22:15:00     -0.000    -0.000     2.594     0.173
   01/08/2020 22:30:00     -0.000    -0.000     2.581     0.172
   01/08/2020 22:45:00     -0.000    -0.000     2.610     0.174
   01/08/2020 23:00:00     -0.000    -0.000     2.705     0.180
   01/08/2020 23:15:00     -0.000    -0.000     2.650     0.177
   01/08/2020 23:30:00     -0.000    -0.000     2.738     0.183
   01/08/2020 23:45:00     -0.000    -0.000     2.683     0.179
   01/09/2020 00:00:00     -0.000    -0.000     2.638     0.176
  
  
  <<< Link 146 >>>
  ----------------------------------------------------------------
                             Flow  Velocity     Depth  Capacity/
  Date        Time            CFS    ft/sec      feet   Setting 
  ----------------------------------------------------------------
   01/08/2020 14:00:00     -0.000    -0.000     0.000     0.000
   01/08/2020 14:15:00     -0.000    -0.000     0.000     0.000
   01/08/2020 14:30:00     -0.000    -0.000     0.000     0.000
   01/08/2020 14:45:00     -0.000    -0.000     0.000     0.000
   01/08/2020 15:00:00     -0.000    -0.000     0.000     0.000
   01/08/2020 15:15:00     -0.000    -0.000     0.000     0.000
   01/08/2020 15:30:00     -0.000    -0.000     0.000     0.000
   01/08/2020 15:45:00     -0.000    -0.000     0.000     0.000
   01/08/2020 16:00:00     -0.000    -0.000     0.000     0.000
   01/08/2020 16:15:00     -0.000    -0.000     0.000     0.000
   01/08/2020 16:30:00     -0.000    -0.000     0.000     0.000
   01/08/2020 16:45:00     -0.000    -0.000     0.000     0.000
   01/08/2020 17:00:00     -0.000    -0.000     0.000     0.000
   01/08/2020 17:15:00     -0.000    -0.000     0.000     0.000
   01/08/2020 17:30:00     -0.000    -0.000     0.000     0.000
   01/08/2020 17:45:00     -0.000    -0.000     0.000     0.000
   01/08/2020 18:00:00     -0.000    -0.000     0.000     0.000
   01/08/2020 18:15:00     -0.000    -0.000     0.000     0.000
   01/08/2020 18:30:00     -0.000    -0.000     0.000     0.000
   01/08/2020 18:45:00     -0.000    -0.000     0.000     0.000
   01/08/2020 19:00:00     -0.000    -0.000     0.000     0.000
   01/08/2020 19:15:00     -0.000    -0.000     0.000     0.000
   01/08/2020 19:30:00     -0.000    -0.000     0.000     0.000
   01/08/2020 19:45:00     -0.000    -0.000     0.000     0.000
   01/08/2020 20:00:00     -0.000    -0.000     0.000     0.000
   01/08/2020 20:15:00     -0.000    -0.000     0.000     0.000
   01/08/2020 20:30:00     -0.000    -0.000     0.000     0.000
   01/08/2020 20:45:00     -0.000    -0.000     0.000     0.000
   01/08/2020 21:00:00     -0.000    -0.000     0.000     0.000
   01/08/2020 21:15:00     -0.000    -0.000     0.000     0.000
   01/08/2020 21:30:00     -0.000    -0.000     0.000     0.000
   01/08/2020 21:45:00     -0.000    -0.000     0.000     0.000
   01/08/2020 22:00:00     -0.000    -0.000     0.000     0.000
   01/08/2020 22:15:00     -0.000    -0.000     0.000     0.000
   01/08/2020 22:30:00     -0.000    -0.000     0.000     0.000
   01/08/2020 22:45:00     -0.000    -0.000     0.000     0.000
   01/08/2020 23:00:00     -0.000    -0.000     0.000     0.000
   01/08/2020 23:15:00     -0.000    -0.000     0.000     0.000
   01/08/2020 23:30:00     -0.000    -0.000     0.000     0.000
   01/08/2020 23:45:00     -0.000    -0.000     0.000     0.000
   01/09/2020 00:00:00     -0.000    -0.000     0.000     0.000
  
  
  <<< Link 147 >>>
  ----------------------------------------------------------------
                             Flow  Velocity     Depth  Capacity/
  Date        Time            CFS    ft/sec      feet   Setting 
  ----------------------------------------------------------------
   01/08/2020 14:00:00      0.000     0.000     0.000     0.000
   01/08/2020 14:15:00      0.000     0.000     0.000     0.000
   01/08/2020 14:30:00      0.000     0.000     0.000     0.000
   01/08/2020 14:45:00      0.000     0.000     0.000     0.000
   01/08/2020 15:00:00      0.000     0.000     0.000     0.000
   01/08/2020 15:15:00      0.000     0.000     0.000     0.000
   01/08/2020 15:30:00      0.000     0.000     0.000     0.000
   01/08/2020 15:45:00      0.000     0.000     0.000     0.000
   01/08/2020 16:00:00      0.000     0.000     0.000     0.000
   01/08/2020 16:15:00      0.000     0.000     0.000     0.000
   01/08/2020 16:30:00      0.000     0.000     0.000     0.000
   01/08/2020 16:45:00      0.000     0.000     0.000     0.000
   01/08/2020 17:00:00      0.000     0.000     0.000     0.000
   01/08/2020 17:15:00      0.000     0.000     0.000     0.000
   01/08/2020 17:30:00      0.000     0.000     0.000     0.000
   01/08/2020 17:45:00      0.000     0.000     0.000     0.000
   01/08/2020 18:00:00      0.000     0.000     0.000     0.000
   01/08/2020 18:15:00      0.000     0.000     0.000     0.000
   01/08/2020 18:30:00      0.000     0.000     0.000     0.000
   01/08/2020 18:45:00      0.000     0.000     0.000     0.000
   01/08/2020 19:00:00      0.000     0.000     0.000     0.000
   01/08/2020 19:15:00      0.000     0.000     0.000     0.000
   01/08/2020 19:30:00      0.000     0.000     0.000     0.000
   01/08/2020 19:45:00      0.000     0.000     0.000     0.000
   01/08/2020 20:00:00      0.000     0.000     0.000     0.000
   01/08/2020 20:15:00      0.000     0.000     0.000     0.000
   01/08/2020 20:30:00      0.000     0.000     0.000     0.000
   01/08/2020 20:45:00      0.000     0.000     0.000     0.000
   01/08/2020 21:00:00      0.000     0.000     0.000     0.000
   01/08/2020 21:15:00      0.000     0.000     0.000     0.000
   01/08/2020 21:30:00      0.000     0.000     0.000     0.000
   01/08/2020 21:45:00      0.000     0.000     0.000     0.000
   01/08/2020 22:00:00      0.000     0.000     0.000     0.000
   01/08/2020 22:15:00      0.000     0.000     0.000     0.000
   01/08/2020 22:30:00      0.000     0.000     0.000     0.000
   01/08/2020 22:45:00      0.000     0.000     0.000     0.000
   01/08/2020 23:00:00      0.000     0.000     0.000     0.000
   01/08/2020 23:15:00      0.000     0.000     0.000     0.000
   01/08/2020 23:30:00      0.000     0.000     0.000     0.000
   01/08/2020 23:45:00      0.000     0.000     0.000     0.000
   01/09/2020 00:00:00      0.000     0.000     0.000     0.000
  
  
  <<< Link 148 >>>
  ----------------------------------------------------------------
                             Flow  Velocity     Depth  Capacity/
  Date        Time            CFS    ft/sec      feet   Setting 
  ----------------------------------------------------------------
   01/08/2020 14:00:00      0.000     0.000     7.500     0.500
   01/08/2020 14:15:00      0.000     0.000     7.500     0.500
   01/08/2020 14:30:00      0.000     0.000     7.500     0.500
   01/08/2020 14:45:00      0.000     0.000     7.500     0.500
   01/08/2020 15:00:00      0.000     0.000     7.500     0.500
   01/08/2020 15:15:00      0.000     0.000     7.500     0.500
   01/08/2020 15:30:00      0.000     0.000     7.500     0.500
   01/08/2020 15:45:00      0.000     0.000     7.500     0.500
   01/08/2020 16:00:00      0.000     0.000     7.500     0.500
   01/08/2020 16:15:00      0.000     0.000     7.500     0.500
   01/08/2020 16:30:00      0.000     0.000     7.500     0.500
   01/08/2020 16:45:00      0.000     0.000     7.500     0.500
   01/08/2020 17:00:00      0.000     0.000     7.500     0.500
   01/08/2020 17:15:00      0.000     0.000     7.500     0.500
   01/08/2020 17:30:00      0.000     0.000     7.500     0.500
   01/08/2020 17:45:00      0.000     0.000     7.500     0.500
   01/08/2020 18:00:00      0.000     0.000     7.500     0.500
   01/08/2020 18:15:00      0.000     0.000     7.500     0.500
   01/08/2020 18:30:00      0.000     0.000     7.500     0.500
   01/08/2020 18:45:00      0.000     0.000     7.500     0.500
   01/08/2020 19:00:00      0.000     0.000     7.500     0.500
   01/08/2020 19:15:00      0.000     0.000     7.500     0.500
   01/08/2020 19:30:00      0.000     0.000     7.500     0.500
   01/08/2020 19:45:00      0.000     0.000     7.500     0.500
   01/08/2020 20:00:00      0.000     0.000     7.500     0.500
   01/08/2020 20:15:00      0.000     0.000     7.500     0.500
   01/08/2020 20:30:00      0.000     0.000     7.500     0.500
   01/08/2020 20:45:00      0.000     0.000     7.500     0.500
   01/08/2020 21:00:00      0.000     0.000     7.500     0.500
   01/08/2020 21:15:00      0.000     0.000     7.500     0.500
   01/08/2020 21:30:00      0.000     0.000     7.500     0.500
   01/08/2020 21:45:00      0.000     0.000     7.500     0.500
   01/08/2020 22:00:00      0.000     0.000     7.500     0.500
   01/08/2020 22:15:00      0.000     0.000     7.500     0.500
   01/08/2020 22:30:00      0.000     0.000     7.500     0.500
   01/08/2020 22:45:00      0.000     0.000     7.500     0.500
   01/08/2020 23:00:00      0.000     0.000     7.500     0.500
   01/08/2020 23:15:00      0.000     0.000     7.500     0.500
   01/08/2020 23:30:00      0.000     0.000     7.500     0.500
   01/08/2020 23:45:00      0.000     0.000     7.500     0.500
   01/09/2020 00:00:00      0.000     0.000     7.500     0.500
  
  
  <<< Link 149 >>>
  ----------------------------------------------------------------
                             Flow  Velocity     Depth  Capacity/
  Date        Time            CFS    ft/sec      feet   Setting 
  ----------------------------------------------------------------
   01/08/2020 14:00:00     -0.361    -0.001    17.189     0.790
   01/08/2020 14:15:00      0.323     0.001    17.189     0.790
   01/08/2020 14:30:00     -0.583    -0.001    17.189     0.790
   01/08/2020 14:45:00     -0.777    -0.002    17.189     0.790
   01/08/2020 15:00:00      0.493     0.001    17.188     0.790
   01/08/2020 15:15:00      0.868     0.002    17.192     0.790
   01/08/2020 15:30:00      3.111     0.007    17.187     0.790
   01/08/2020 15:45:00      0.487     0.001    17.188     0.790
   01/08/2020 16:00:00      0.111     0.000    17.189     0.790
   01/08/2020 16:15:00     -0.261    -0.001    17.190     0.790
   01/08/2020 16:30:00     -0.107    -0.000    17.190     0.790
   01/08/2020 16:45:00     -0.715    -0.002    17.188     0.790
   01/08/2020 17:00:00     -0.318    -0.001    17.192     0.790
   01/08/2020 17:15:00     -0.421    -0.001    17.191     0.790
   01/08/2020 17:30:00     -2.308    -0.005    17.187     0.790
   01/08/2020 17:45:00     -0.595    -0.001    17.187     0.790
   01/08/2020 18:00:00     -0.767    -0.002    17.192     0.790
   01/08/2020 18:15:00     -0.627    -0.001    17.189     0.790
   01/08/2020 18:30:00     -0.330    -0.001    17.184     0.789
   01/08/2020 18:45:00      0.056     0.000    17.188     0.790
   01/08/2020 19:00:00      0.064     0.000    17.186     0.790
   01/08/2020 19:15:00     -0.083    -0.000    17.188     0.790
   01/08/2020 19:30:00     -0.228    -0.001    17.191     0.790
   01/08/2020 19:45:00      0.317     0.001    17.189     0.790
   01/08/2020 20:00:00     -0.090    -0.000    17.190     0.790
   01/08/2020 20:15:00      0.304     0.001    17.188     0.790
   01/08/2020 20:30:00      0.196     0.000    17.188     0.790
   01/08/2020 20:45:00      0.246     0.001    17.188     0.790
   01/08/2020 21:00:00     -0.210    -0.000    17.189     0.790
   01/08/2020 21:15:00     -0.133    -0.000    17.190     0.790
   01/08/2020 21:30:00      0.000     0.000    17.190     0.790
   01/08/2020 21:45:00     -0.138    -0.000    17.189     0.790
   01/08/2020 22:00:00      0.201     0.000    17.191     0.790
   01/08/2020 22:15:00      1.117     0.003    17.185     0.790
   01/08/2020 22:30:00      0.134     0.000    17.188     0.790
   01/08/2020 22:45:00     -6.705    -0.015    17.173     0.789
   01/08/2020 23:00:00      1.311     0.003    17.193     0.790
   01/08/2020 23:15:00     -0.582    -0.001    17.191     0.790
   01/08/2020 23:30:00      0.356     0.001    17.191     0.790
   01/08/2020 23:45:00     -0.133    -0.000    17.192     0.790
   01/09/2020 00:00:00      0.816     0.002    17.191     0.790
  

  Analysis begun on:  Wed Dec 29 12:21:03 2021
  Analysis ended on:  Wed Dec 29 12:33:08 2021
  Total elapsed time: 00:12:05